# total energy = -19077.13635674 eV

CRYSTAL
PRIMVEC
        5.17575250     0.00001323     0.00000000
        0.00001429     5.50856584     0.00000000
        0.00000000     0.00000000     9.26345890
PRIMCOORD
22 1
Ti      1.93449260     3.40934636     3.31989968    -0.11990678    -0.11326176     0.05262253
Ti      3.37009913     2.25277080     5.91872882     0.08254221    -0.09008095    -0.05642545
Ti      4.50605288     2.26518383     1.15452679    -0.27296770    -0.08133662     0.00841034
Ti      0.75784400     3.24587716     8.09603857    -0.06879298     0.22809422     0.02304172
Ti      1.84849292     0.57923501     1.21209744    -0.07664616     0.25682785     0.14430656
Ti      3.21939085     4.98963132     8.11346460    -0.00482416     0.00935136     0.05263744
Ti      0.71980885     0.55309459     5.80573359     0.24108215    -0.06635454    -0.06314503
Ti      4.47130851     4.96920010     3.46555621     0.16796123    -0.02516622     0.21228167
O       3.46199507     3.49856796     4.55107053    -0.03291399     0.03499093    -0.11917196
O       0.94151869     1.90489276     0.13338140     0.04924256     0.14229236    -0.16074337
O       4.18649814     3.61873658     9.11967495    -0.00079061    -0.15820646     0.07458902
O       3.55970164     0.81733331     0.07231737    -0.05348128     0.12445198     0.02488443
O       1.60662896     4.68577572     9.14169225    -0.08630939     0.10421611     0.01748891
O       4.24315265     0.81782108     4.72729500    -0.05351188     0.01928894    -0.01959567
O       0.94916448     4.65587613     4.57449574    -0.13265252    -0.20815582    -0.10484551
O       0.16321156     3.32879875     2.51805891     0.05263744    -0.05587549    -0.04822183
O       5.08597788     2.09370715     6.75891109    -0.07111854    -0.02079432     0.10580813
O       2.74368709     2.10945173     2.17067966     0.01258067    -0.09420680    -0.12107406
O       2.37744531     3.37273118     7.09077904    -0.03282451     0.03317496    -0.07520171
O       0.18957800     0.55696969     2.16775380     0.01094185    -0.14204887     0.08933430
O       2.38707783     0.64054738     6.69220169     0.23528585     0.03684752     0.12090231
O       2.76019302     4.88549796     2.49605902     0.15446654     0.06595191    -0.15788302
