# total energy = -19928.72167329 eV

CRYSTAL
PRIMVEC
        4.85599719     0.00000000     0.00000000
        1.98781102     4.77068220     0.00000000
        0.00000000     0.00000000     8.87748163
PRIMCOORD
24 1
Ti      2.93804043     2.82710194     3.29348237     4.65075273    -3.81025520     1.26978013
Ti      3.90576785     1.94358039     5.58399936    -4.65075273     3.81025520    -1.26978013
Ti      4.99782068     1.94358201     1.14522301    -9.46048866     2.20341334     2.67374568
Ti      1.84598764     2.82710051     7.73225877     9.46048866    -2.20341334    -2.67374568
Ti      1.94413502     0.44176082     1.14525860     4.65068743    -3.81019144    -1.26653257
Ti      4.89967330     4.32892166     7.73222318    -4.65068743     3.81019144     1.26653257
Ti      0.85208211     0.44175907     5.58396373     9.46107487    -2.20241036     2.66452158
Ti      5.99172620     4.32892341     3.29351795    -9.46107487     2.20241036    -2.66452158
O       2.23689581     1.67983835     4.53011094    -1.84198527    -0.31584728    -1.26952379
O       4.60691242     3.09084399     4.34737079     1.84198527     0.31584728     1.26952379
O       1.59102332     1.67985763     0.09139865     2.10143333    -0.33428442    -1.86829589
O       5.25278503     3.09082479     8.78608278    -2.10143333     0.33428442     1.86829589
O       3.61300699     0.70550278     0.09136983     1.84191765     0.31575447    -1.26951865
O       3.23080129     4.06517956     8.78611161    -1.84191765    -0.31575447     1.26951865
O       4.25887954     0.70548354     4.53013971    -2.10164570     0.33498916    -1.86803647
O       2.58492865     4.06519886     4.34734197     2.10164570    -0.33498916     1.86803647
O       1.38552897     2.90179949     2.39802928    -0.14305598    -3.66765585    -3.45393411
O       5.45827926     1.86888285     6.47945245     0.14305598     3.66765585     3.45393411
O       3.38313101     1.86883846     2.04073982     2.46281384    -3.40772597    -4.35940704
O       3.46067723     2.90184389     6.83674176    -2.46281384     3.40772597     4.35940704
O       0.39162353     0.51645823     2.04071144    -0.14301638    -3.66798804     3.45445347
O       6.45218475     4.25422411     6.83677009     0.14301638     3.66798804    -3.45445347
O       2.46677179     0.51650267     6.47948074    -2.46285060     3.40766375    -4.35964718
O       4.37703644     4.25417967     2.39800094     2.46285060    -3.40766375     4.35964718
