# total energy = -19076.27278064 eV

CRYSTAL
PRIMVEC
        7.60600008     0.00000000     0.00000000
        0.00000000     7.60600008     0.00000000
       -1.89786986    -1.89786986     4.85670466
PRIMCOORD
22 1
Ti      3.79261298     6.65448102     1.20425200     0.36303244    -0.20081454    -0.45116347
Ti      3.71496098     2.82285402     1.16659099     1.04967100     0.57350431     0.65938562
Ti      0.15905698     6.71897698     1.01943499    -0.40372377    -0.77346885     2.40019691
Ti      0.03425100     2.89734398     1.20372103    -1.10897505     0.17485642    -1.55144253
Ti      5.64935921     2.89581725     3.53601980    -0.50069682    -1.48398859     0.24014601
Ti      6.07830521    -1.03803875     3.70397383     0.06034150     2.51498540    -1.05716525
Ti      1.83672920     2.78758621     3.65932879     0.69916214    -0.24141356    -0.37521202
Ti      1.60591124    -1.05049976     3.86229483    -0.90884725     1.21319527    -1.89997369
O       3.54835900     4.71598601     0.68329102     0.38436310     1.26067380     0.70863075
O       3.79137201     0.93791000     0.86984500    -0.27575503    -0.78827790     1.19180317
O       0.17145999     4.80438099     0.69986898    -0.55172140    -0.08442606     0.19108137
O      -0.14374698     0.95776298     0.72307298     0.59191908     0.81426790     0.93977841
O       5.47819625     4.84493624     4.03241780     0.18060130    -1.08211216    -1.42328790
O       5.78198225     0.96535525     3.99512483     0.04807785    -0.32834748     0.26788514
O       2.14227922     4.84678222     4.07346079    -0.09603845    -1.82618558     0.47751703
O       1.97630520     0.87590524     4.08477581    -0.48053910     0.37801041    -0.65089095
O       3.78001724     2.81378424     3.18907479    -0.80498982     0.07375855     0.30400761
O      -0.06240376     2.91872422     3.20082184     0.85576758     0.26837982    -0.37880977
O       5.71074002     6.69928101     1.84831400    -0.53902992    -0.55407268    -0.22924684
O       5.59363801     2.85790799     1.50615302     1.15983227     0.56325024     0.76523000
O       1.92283100     6.71816898     1.94659799     0.48619116    -0.08892369    -0.58912943
O       1.85208899     2.83707900     1.60018602    -0.20864253    -0.38285103     0.46065984
