# total energy = -4985.40905530 eV

CRYSTAL
PRIMVEC
        2.98018368     0.00000000     0.00000000
        1.79596200     4.31030850     0.00000000
       -0.00001145    -0.00006204     4.76960653
PRIMCOORD
6 1
Ti      2.38806703     2.15512309     2.38480321     0.00000000     0.00000000     0.00000000
Ti      0.00000000     0.00000000     0.00000000     0.00000000     0.00000000     0.00000000
O       1.84009607     0.84000345     0.92952604    -3.81461836     1.86620790     2.09983950
O       2.93603799     3.47024273     3.84008033     3.81461836    -1.86620790    -2.09983950
O       0.54796605     1.31509460     3.31433030     3.81424272    -1.86613899     2.09960322
O       1.24798448     2.99515176     1.45527613    -3.81424272     1.86613899    -2.09960322
