# total energy = -39033.54579795 eV

CRYSTAL
PRIMVEC
        7.60600008     0.00000000     0.00000000
        0.00000000     7.60600008     0.00000000
       -3.79573973    -3.79573973     9.71340985
PRIMCOORD
46 1
Ti      2.02547942     4.86235945     6.14028462    -1.37024423    -0.42610626    -1.06124354
Ti      3.91959901     6.66863900     1.13369500    -0.16119100     0.25862042     1.63114187
Ti      1.70801546     0.85992446     6.17539362    -0.12691047    -0.79793933    -1.06624896
Ti      3.95265798     2.66061299     1.28406299     0.79938532     0.50860425    -1.39378114
Ti     -1.74486054     4.70116544     6.00853663    -1.73833198    -0.86310397     1.25075499
Ti      0.16369902     6.55111900     1.30203798    -0.00560475     1.65034879     1.69249022
Ti     -2.22133554     0.86177044     6.09827260     0.77228820     0.99633730    -2.10983467
Ti      0.17450900     2.84696598     1.02356401    -1.21090262    -2.62951523     2.18046213
Ti      3.71020542     0.90012643     8.60878965    -2.46524764     2.24041127    -1.12208357
Ti      5.76310099     2.87376601     3.62309200     1.40355160    -1.41606387    -0.20351832
Ti      3.76419643    -2.91273854     8.41438760     0.08165287    -0.28204344     2.00806111
Ti      5.71352899    -0.98487797     3.68383398     0.45889580     2.03590000    -1.01895453
Ti     -0.28371055     1.03311243     8.30000864     2.09305256    -0.15335865     1.41846786
Ti      1.96133901     2.89140999     3.46526399    -1.30572340    -0.33089724     0.84129458
Ti     -0.05573454    -2.66105258     8.48337464    -0.18958370    -1.22527046     0.53266695
Ti      2.05632802    -0.92631298     3.63530001    -2.10718669    -0.04028483     0.45049704
O       1.59665344    -1.00216355     6.06976561     0.98761277     1.61194087    -1.64544827
O       3.86232002     0.85784998     0.93309401     0.04930889     1.71061933    -0.94649207
O      -1.90297055     2.68213145     5.79507261    -0.24781561     1.73835486    -1.44355000
O       0.05919102     4.68836301     0.79369698     0.29060367     1.58042325     0.11927018
O      -2.14756353    -0.94947258     5.58599764     0.15276858    -1.23748347     0.34091992
O       0.22953301     0.93874599     0.80600199     0.14207150     1.28987331    -0.04399853
O       3.47951743     2.98997545     9.31419261    -0.03947956    -1.35203413    -4.81354013
O      -1.51766300     4.77587501     4.20652500    -0.73053707    -0.53832184    -2.21657483
O       3.49071545    -0.82982253     8.87020565     0.42047425    -2.88760909    -0.59352576
O       5.66078499     0.93314301     3.92776400     0.13303176     0.72203314     0.46092698
O      -0.09986654     2.89087045     9.04886562    -0.36361891    -1.73921052    -2.01070343
O       1.92372901     4.83296402     4.21374499     0.56234084    -1.09435910    -0.57616206
O       0.06474642    -0.88656356     8.92534565    -0.74464677     1.23845020     0.37452297
O       1.99595001     0.97508301     4.13292798    -0.15828103     1.91185219     0.53175292
O       1.65853543     1.05730043     8.00793264     0.90679011     0.72630966     1.06279468
O       3.93787102     3.24709601     3.05157300    -0.99969542    -0.13642818     1.20868916
O       1.75176646    -2.76148756     7.99546464     2.02957071    -0.98124260     1.57041342
O       3.74848103    -0.65038398     3.26020198     3.19645886    -1.29049372    -0.13253733
O      -2.15502053     0.88225945     8.01968562     0.27489577     0.23517272     1.48770126
O       0.05325000     2.96038899     3.16069200     1.65342075    -0.33715840     0.04645342
O      -1.86492556    -2.92290154     8.01323865    -1.55842462     0.64217748     1.07451326
O       0.20454098    -0.70849700     3.24010801    -2.18089716    -0.70962319    -0.41786844
O       3.80606345     4.44531242     6.49870865    -0.24078750     0.28000764     0.09011643
O       5.69453798     6.52421801     1.61865102     0.62873831    -0.88841649     1.32830926
O       3.61593546     0.79420647     6.45214962    -1.10720999     0.75823403     0.48186605
O       5.87087799     2.84583302     1.61245298    -1.51792793    -0.10372425    -0.10253229
O      -0.06186855     4.78224948     6.45065364     1.56401626    -0.45672116     0.34049620
O       2.05810400     6.44710598     1.63485898    -0.53616443    -0.71529196    -0.04054914
O      -0.28414956     0.82537347     6.50985063     1.18551631     0.16883309    -0.91729487
O       1.98967698     2.89819299     1.32551498     1.31996654     0.32819681     1.35185929
