# total energy = -19961.23072276 eV

CRYSTAL
PRIMVEC
        7.60600008     0.00000000     0.00000000
        0.00000000     7.60600008     0.00000000
       -1.89786986    -1.89786986     4.85670466
PRIMCOORD
24 1
Ti      3.75269402     6.61232099     1.25385702     0.28633384    -1.81697511    -0.09305777
Ti      3.73424198     2.75051602     1.21263999     0.20409502     1.66968761     0.33362827
Ti      0.05501898     6.72415901     1.25438001     0.06102336     0.07684567    -0.24259421
Ti      0.00658498     2.94302197     1.11558999    -0.39157941    -0.30394127     0.62101240
Ti      5.71213821     3.02921622     3.62024280     0.37235167    -0.34608141    -0.83711679
Ti      5.72313324    -0.87290280     3.60913283    -0.32480861    -0.11059707    -0.09739111
Ti      1.80996522     2.74333324     3.64171280     0.32131448     0.34735437     0.44798095
Ti      1.87414023    -1.08323779     3.73228884     0.49124852    -0.19567671    -0.97011075
O       3.67337501     4.70686701     0.71655600     0.18516192    -0.68403685     0.61537166
O       3.73042100     0.85150499     0.87858299     0.25493166     1.04668671    -0.25486944
O       0.15115101     4.76128501     0.82111503    -0.43010330     1.45567405    -1.08798636
O       0.16178499     1.02539401     0.79475898    -0.88851368    -0.91193155    -0.53432429
O      -1.56849280     4.86677422     4.01829882    -1.22385970    -1.05839861     0.95377010
O       5.74887322     1.02086425     3.90647081    -0.53403298    -0.23536401     0.77962999
O       1.69094822     4.69165623     4.12220981     0.53386637     0.76946307    -0.26073721
O       1.99325824     0.89487625     4.04647783    -0.15299458    -0.90058861     0.30828104
O       3.76369625     2.86338323     3.13121683     1.01711748     0.31536520     0.71374339
O       3.78545623     6.33194421     3.21542279     0.69414669     0.85420589     0.67283352
O      -0.00235277     2.91330624     3.21525779    -0.67423015    -0.60683868    -0.39055586
O       0.00563124    -0.86669777     3.25300581     0.14168018     0.27906044    -0.87140221
O       5.69405998     6.57243500     1.53033600     0.86967468     0.48032287     0.69613595
O       5.74667200     3.08029399     1.58433700    -0.59575491    -0.77456517     0.36325742
O       1.92175798     6.51249102     1.71687802    -1.06342152     0.55927274     0.13154694
O       1.84506702     2.79284798     1.67877403     0.84635348     0.09105668    -0.99704564
