# total energy = -19959.99289594 eV

CRYSTAL
PRIMVEC
        7.60600008     0.00000000     0.00000000
        0.00000000     7.60600008     0.00000000
       -1.89786986    -1.89786986     4.85670466
PRIMCOORD
24 1
Ti      3.73716298     6.56495598     1.31705301    -1.69116507     1.36622945    -0.13175983
Ti      3.72499699     2.98041200     1.23418999     1.44269794    -1.51445849     0.64145731
Ti     -0.06306401     6.63933798     1.17696900     1.54558556    -1.74146667    -0.01728810
Ti      0.04857101     2.79777901     1.18004399     0.08320530     1.39681067    -0.97627394
Ti      5.79422021     2.88772020     3.55991083    -1.52769941    -0.61847215     0.32755944
Ti      5.79533625    -1.00304177     3.61567579    -0.49200006     0.39689749    -0.09690620
Ti      1.80586425     2.91309922     3.68591079     2.43697270     0.29618811    -0.25742203
Ti      1.83640524    -0.94551777     3.72371881     0.78987738    -0.12945689     0.25768840
O       3.64910598     4.81710802     0.87022299     0.57308677     0.02874597    -1.32087286
O       3.62121898     1.13683302     0.81972302     0.86552415    -2.31150899     0.15983294
O       0.14195301     4.66860803     0.65627298    -0.50200731     0.04093455     0.73635111
O       0.23363102     0.82838899     0.69329602    -0.92743685     1.49405883     0.44193989
O      -1.55711279     4.64592823     4.10432082    -0.77105176     1.59767973    -0.42531667
O       5.85205124     0.96055820     3.88997281    -0.66835414    -1.74643481     0.49101018
O       1.57829221     4.78483123     4.04758884     0.79372452    -0.18390259     1.48787713
O       1.87705420     1.02627821     4.04288683     0.35737447     0.23200332    -0.12279850
O       3.80003120     3.10497323     3.27112579     0.68714249    -0.53142511    -0.51656413
O       3.74031122    -1.27557880     3.29752279     1.08384277     1.08250554    -0.15851705
O       0.08160823     2.83852624     3.16990683    -0.70043998    -0.57088564    -1.08282641
O       0.01824323    -0.98994876     3.17487882    -2.05149760     0.57483846    -0.30148021
O       5.60009699     6.52764099     1.54328999     1.56850309     0.51407170     0.56306049
O       5.85479799     3.05139700     1.56421202    -0.70856313    -0.82402833     0.02425991
O       1.81469998     6.40872301     1.75985800     0.54419527     1.17336321    -0.68075226
O       2.00069001     2.91391098     1.56417201    -2.73151736    -0.02228710     0.95774168
