# total energy = -19517.04077952 eV

CRYSTAL
PRIMVEC
        5.93400000     0.00000000     0.00000000
        0.00000000     9.29699974     0.00000000
        0.00000000     0.00000000     4.64899994
PRIMCOORD
23 1
Ti      4.41725201     6.87606098     2.31914401     2.09894424     0.82198661    -0.09659638
Ti      4.49019200     2.41403200     2.33268402     0.84283184    -1.12700826     0.39214351
Ti      1.47063798     7.07728602     2.22820601    -1.22377640     0.20240683    -0.17085835
Ti      1.56797701     2.32152298     2.33683298    -0.83392039    -0.61410513     0.30240890
Ti      2.94659900     4.69842801     0.27760601    -0.09677867     0.54999491    -0.40861606
Ti      2.92203200     0.06715402     4.59672200     0.97595487    -0.70846234     0.05795243
Ti      5.91206598     4.45926000     4.58661699     0.40646996     0.81395166    -0.25371193
Ti      5.91633099     0.08179001     4.55191598    -0.88181286    -0.37218378     0.16048343
O       4.52565100     5.44998999     0.91277398    -1.15538220     1.32720137     0.73807066
O       4.59887400     1.02965500     0.82838402    -0.95058861    -0.22347960     0.67351512
O       1.31709900     5.45215999     0.91188501     1.27856585     0.75427762    -0.04723607
O       1.51574002     0.85480298     0.98461201     0.21344278     0.26869504    -0.28395094
O       4.46323301     8.44437401     3.69288201    -0.20409476    -0.60985227    -0.18457057
O       4.36172999     3.69695202     3.89153002    -0.43430062    -0.34623311    -1.36048740
O       1.53041400     8.53475902     3.60017201     0.21926144    -1.04336125    -0.08678273
O       1.36820598     3.46874200     3.83587301     1.17712294     1.27955933     0.35481751
O       3.05737702     1.38867900     3.23782001    -0.41202509     0.71187317    -0.55800107
O       5.85900802     6.13985599     3.22893602     0.37165207    -1.22192494     0.61202691
O       0.05579698     1.41986199     3.22445399    -0.33884684    -0.06596168    -0.30413565
O       2.94579502     7.68974402     1.15565702    -0.09249804    -0.01660162     1.34038908
O       3.04230399     3.33237800     1.45799498    -0.82340792    -1.27902942     1.14036489
O       0.00161299     7.76699401     1.42572501    -0.53831233     1.10170680    -1.29413672
O       5.92977801     3.32957701     1.59282400     0.40149822    -0.20344993    -0.72308884
