# total energy = -4983.42814498 eV

CRYSTAL
PRIMVEC
        3.05812054     0.00000000     0.00000000
        2.25487859     4.22789666     0.00000000
       -0.00001450    -0.00006532     4.95845380
PRIMCOORD
6 1
Ti      2.65649207     2.11391557     2.47922701     0.00000000     0.00000000     0.00000000
Ti      0.00000000     0.00000000     0.00000000     0.00000000     0.00000000     0.00000000
O       1.96849995     0.82394202     0.96632967    -4.25249102     2.10722140     2.46147326
O       3.34448422     3.40388921     3.99212440     4.25249102    -2.10722140    -2.46147326
O       0.68798597     1.28994729     3.44555764     4.24987338    -2.10735149     2.46058366
O       1.56687778     2.93788402     1.51289637    -4.24987338     2.10735149    -2.46058366
