# total energy = -19944.53267812 eV

CRYSTAL
PRIMVEC
        5.82999677     0.00000000     0.00000000
        0.61897245     6.17392933     0.00000000
        0.00000000     0.00000000    10.44750993
PRIMCOORD
24 1
Ti      2.47989599     3.65866484     3.87595176     0.05309870    -1.25389380     0.73515374
Ti      3.96907342     2.51526454     6.57155853    -0.05309870     1.25389380    -0.73515374
Ti      5.28016594     2.51526664     1.34776165    -0.06288638     0.17851870    -0.35265855
Ti      1.16880347     3.65866304     9.09974882     0.06288638    -0.17851870     0.35265855
Ti      2.17040988     0.57170023     1.34780356     0.05309870    -1.25389380    -0.73515374
Ti      4.27855953     5.60222939     9.09970691    -0.05309870     1.25389380     0.73515374
Ti      0.85931729     0.57169795     6.57151668     0.06288638    -0.17851870    -0.35265855
Ti      5.58965206     5.60223160     3.87599367    -0.06288638     0.17851870     0.35265855
O       2.06318158     2.17394549     5.33128449     1.40262857     1.46451067    -0.27062491
O       4.38578782     3.99998395     5.11622581    -1.40262857    -1.46451067     0.27062491
O       1.28775494     2.17397045     0.10756298    -0.96205702     0.67108748     0.39042782
O       5.16121453     3.99995904    10.33994708     0.96205702    -0.67108748    -0.39042782
O       4.07630171     0.91301910     0.10752910    -1.40262857    -1.46451067    -0.27062491
O       2.37266769     5.26091033    10.33998095     1.40262857     1.46451067     0.27062491
O       4.85172841     0.91299419     5.33131842     0.96205702    -0.67108748     0.39042782
O       1.59724093     5.26093525     5.11619193    -0.96205702     0.67108748    -0.39042782
O       0.58831138     3.75533394     2.82213315     0.34689517     0.37456153     0.70368831
O       5.86065797     2.41859550     7.62537715    -0.34689517    -0.37456153    -0.70368831
O       3.36929988     2.41853800     2.40165522     0.56224956     0.76856935     0.06972243
O       3.07966952     3.75539137     8.04585495    -0.56224956    -0.76856935    -0.06972243
O       0.27882526     0.66836909     2.40162182     0.34689517     0.37456153    -0.70368831
O       6.17014408     5.50556029     8.04588829    -0.34689517    -0.37456153     0.70368831
O       2.77018341     0.66842659     7.62541048    -0.56224956    -0.76856935     0.06972243
O       3.67878600     5.50550285     2.82209981     0.56224956     0.76856935    -0.06972243
