# total energy = -19071.20447090 eV

CRYSTAL
PRIMVEC
        5.17600016     0.00000000     0.00000000
        0.00000000     5.50899976     0.00000000
        0.00000000     0.00000000     9.26300011
PRIMCOORD
22 1
Ti      1.36092302     3.05768299     3.66417002     1.75134588    -0.08201102    -0.07156540
Ti      4.09575698     3.24389099     6.07261301     0.64354607    -0.26169803    -1.60215319
Ti      4.19306998     2.13912802     1.35537201    -0.58022646     0.73350412     1.80744763
Ti      1.40212201     2.80139298     8.07276601    -0.95871382     1.21734067    -0.57789653
Ti      1.57521197     0.47225699     1.40447299     0.45946479    -0.22366729     1.21706196
Ti      3.35493598     5.33376801     8.16695702     0.29435105    -1.43841577    -2.50015604
Ti      1.55327102     0.28864100     5.64592501    -1.60227095    -0.10012059     0.78478119
Ti      4.11384400     4.80793002     3.38852101    -1.60098514     0.39432124     0.09315496
O       3.35481099     3.25620902     4.30938298    -1.24593520    -1.65591318     0.84979619
O       0.54998699     1.92089199     0.36313302     0.98164627     0.20148740    -2.72745913
O       5.01518700     4.01248899     7.68976397    -1.42436417     0.10114621    -0.51607690
O       3.23968800     0.77476698     0.41970699     0.58080779     0.92852314    -0.20489797
O       2.01462600     4.45197000     8.87261001    -0.94048135    -1.10898405     3.11232513
O       3.00995300     5.50272203     4.77978002     0.55230222     2.76614216    -0.54471412
O       0.35039498     4.43215602     4.71150599     0.90075779     0.59619251     1.35059405
O       0.00167601     3.53911602     2.45127200    -0.67557226    -0.45833556    -1.49158414
O       0.22010202     1.78561899     5.46330800     1.24784090    -0.00314420     0.00525071
O       2.34333000     2.01097298     2.25188902    -0.35028851    -0.48781430     0.36637514
O       2.40395001     4.11196600     6.66381999     0.69318870    -1.21234938    -0.21911541
O       4.92124402     0.85717401     2.37857501     0.69324192    -1.70590701     1.28157507
O       2.18462102     1.15728202     7.26914601     0.65452443     0.87536016     0.01945992
O       2.34016902     4.58217100     2.47762498    -0.07418047     0.92434330    -0.43220312
