# total energy = -19958.41858552 eV

CRYSTAL
PRIMVEC
        7.60600008     0.00000000     0.00000000
        0.00000000     7.60600008     0.00000000
       -1.89786986    -1.89786986     4.85670466
PRIMCOORD
24 1
Ti      3.75271302     6.70743600     1.12106603     0.88225741    -2.93094736    -0.14778758
Ti      3.92769701     2.63994602     1.24432601    -1.28517642     2.05640095     1.10553415
Ti     -0.01366002     6.77879402     1.16688902    -1.27840619    -0.98961283     0.43152563
Ti     -0.03904201     2.86459500     1.29819901     1.67472158    -0.70275295    -0.27881362
Ti      5.72748324     2.91410223     3.75084682    -1.86460713     0.81355211     0.19210853
Ti      5.61436721    -0.70910577     3.60936181     0.33384244    -1.74974588    -0.53329790
Ti      1.89275923     2.67592621     3.66687179     2.00782405     0.71386886     0.62875785
Ti      1.92154922    -0.96535477     3.61179280    -0.23177064    -0.45566238    -1.31403989
O       3.94821898     4.59269099     0.76791202    -1.19928380     0.25872275    -0.10746187
O       4.10243298     0.79508702     0.72943702    -0.57044650     1.53832502    -0.24104410
O      -0.00932998     4.72150601     0.77538601     1.31763327     1.97286861     0.95419896
O      -0.03134899     0.89972499     0.67768100     0.07335849     2.92151809     0.23393576
O       5.33317924     4.91804922     4.12872282     1.54036313    -2.15642873    -1.52215997
O       5.32611822     1.12395523     4.34196083     0.85891435    -2.14770960    -3.98257754
O       1.96617220     4.71208221     4.03001179    -0.79399757     0.07941549    -0.97999587
O       2.14060622     0.80610825     4.20373280    -0.88219287     0.55308512    -1.44893055
O       3.83227524     2.91381922     3.25458281     0.37983744    -0.38810200    -0.98341287
O       3.80724621    -0.76773575     3.00470182    -0.30329490    -0.25667152     1.64587919
O       0.08807922     2.78367723     3.20104383    -2.87973688     0.48502054     1.83296044
O      -0.02724575    -0.66154178     3.16929282    -0.32717634    -0.38974956     0.92769293
O       5.69487899     6.43474900     1.52708098     0.33809942     0.94361526     1.43030985
O       5.72401898     2.53949702     1.45534602     0.50784191     0.59547517     2.63350404
O       1.86387203     6.96307401     1.61210399     0.51929335    -1.35188629    -0.18871004
O       1.84122599     2.45923601     1.66241700     1.18210265     0.58740087    -0.28817578
