# total energy = -4980.94180054 eV

CRYSTAL
PRIMVEC
        4.48582065     0.00000000     0.00000000
        0.00000000     3.01226072     0.00000000
        0.00000000    -0.00009654     5.97670823
PRIMCOORD
6 1
Ti      2.24291032     1.50608203     2.98835400     0.00000000     0.00000000     0.00000000
Ti      0.00000000     0.00000000     0.00000000     0.00000000     0.00000000     0.00000000
O       2.24291032     0.58702643     1.16477239     0.00000000     0.04063219     2.64309374
O       2.24291032     2.42513770     4.81193561     0.00000000    -0.04063219    -2.64309374
O       0.00000000     0.91901732     4.15312752     0.00000000    -0.04133076     2.64242037
O       0.00000000     2.09314674     1.82358041     0.00000000     0.04133076    -2.64242037
