# total energy = -4951.07154369 eV

CRYSTAL
PRIMVEC
        4.64744692     0.00000000     0.00000000
       -0.00000658     2.50247172     0.00000000
       -2.32374926    -1.25129217     5.01367378
PRIMCOORD
6 1
Ti     -0.00019892     1.87694002     1.25341825    -0.02360171    -0.02428176    38.88952865
Ti      2.32388964    -0.62576032     3.76025513     0.02360171     0.02428176   -38.88952865
O       0.00004933     0.62560813     0.81668643     0.02223054     0.02333765   -28.27416379
O       2.32364129     0.62557147     4.19698705    -0.02223054    -0.02333765    28.27416379
O      -0.00001898    -0.62562509     3.32352332    -0.00145190     0.00010670    -0.47975440
O       2.32370950     1.87680470     1.69015016     0.00145190    -0.00010670     0.47975440
