# total energy = -19067.98047653 eV

CRYSTAL
PRIMVEC
        5.17600016     0.00000000     0.00000000
        0.00000000     5.50899976     0.00000000
        0.00000000     0.00000000     9.26300011
PRIMCOORD
22 1
Ti      1.44202600     3.64253101     3.49546699     1.05470470    -0.54096853    -1.89812301
Ti      3.63781599     2.63165101     5.94015799    -0.42124996    -2.06638326    -0.29184963
Ti      4.16704901     2.27735499     1.23018301    -0.38817013    -0.12920955     2.38710408
Ti      1.30574301     2.12489802     7.93086898    -0.36797539    -1.26034701    -0.34361598
Ti      1.76042899     0.49661898     1.27702398    -0.16940876     0.48036272     0.69882944
Ti      3.52942699     5.38000900     7.95543201    -1.44727708     0.32474202     1.19815329
Ti      0.76409401     5.32750900     6.19478199    -0.47154101     5.03026236    -2.95696359
Ti      4.10742201     5.23475000     3.50188501     0.60603804     1.15928668    -0.40850319
O       3.16059299     3.84528501     4.32521602     1.28545564    -2.23869301     3.76836420
O       1.24105400     2.05400700     0.46875198    -2.60866383     3.18905999    -1.80100315
O       0.09121899     3.82226903     6.62178099    -1.63283649    -3.57312844     1.23711143
O       3.61517202     0.59082698     0.55010399     0.36902749    -0.08221697    -3.30833505
O       1.78205699     0.01641301     8.62852600    -1.94883470    -0.74516485    -0.54114645
O       4.20039401     0.85479398     5.12378201     0.65222355     0.00685636    -1.88448151
O       1.20647597     5.31312200     4.26807202    -2.22419455    -1.17722578     0.83380289
O       4.82369400     3.52221499     2.54128003     2.25317475     0.77510407     0.22521407
O       4.76329101     1.20984900     7.31487200     0.99776117     0.06674972     1.13810489
O       2.53593301     2.05408802     2.36811799     0.43554272    -0.77488707     0.16090381
O       2.80009501     3.22194501     7.70401498     1.23314396     1.20312297    -0.99713177
O       4.92144399     0.91354202     2.22413701     2.37985099    -0.96560823     1.57864121
O       2.22809700     0.94739201     6.48921701     0.82706763     1.08990800     0.78245152
O       2.55400901     4.62248599     2.20664998    -0.41383875     0.22837807     0.42247277
