# total energy = -19073.96653917 eV

CRYSTAL
PRIMVEC
        5.17600016     0.00000000     0.00000000
        0.00000000     5.50899976     0.00000000
        0.00000000     0.00000000     9.26300011
PRIMCOORD
22 1
Ti      2.03928402     3.46139200     3.22539201    -0.02493123    -0.62778983     0.52805336
Ti      3.51850599     2.25409902     5.90080302     0.03015134     0.21509728    -0.84499568
Ti      4.51501200     2.31012000     1.27520700    -0.58288859     0.18447826    -1.92228753
Ti      0.62045599     3.09999600     8.03446099    -0.63869903     1.25508884     1.11100237
Ti      1.92513001     0.45295001     1.32156001     0.13955850     1.62960333    -1.75847761
Ti      2.91336000     5.06207200     7.99999901     2.55812132     0.79823784     0.79570247
Ti      0.60945302     0.09890101     6.16180901    -1.04404079    -0.43120090    -1.93508675
Ti      4.63905300     5.01189002     3.40395399    -0.22403213     0.23043983     1.11503000
O       3.60564402     3.49704500     4.37908700    -0.09791176    -0.73586851     1.44605375
O       0.97763698     1.96027801     0.19701798    -0.14519076    -0.00998283    -0.48450606
O       4.22792800     3.53110300     9.05533598    -0.28280191     0.58095614    -0.64831470
O       3.43645399     0.90080298     0.13963898    -0.24541214    -0.99515767    -1.09811960
O       1.65295499     4.66525098     9.22619001    -1.16493025    -0.48697226    -0.28928212
O       4.33402999     0.84423298     4.91362302     0.28823543    -0.80474093    -0.69787093
O       1.16055302     4.74132698     4.34665701    -1.24132367     0.65296737     0.98698876
O       0.29129699     3.65422900     2.39687300    -0.10976506    -1.30970809    -0.98366715
O       4.95036798     1.77279300     7.03950203    -0.07473608    -0.52946233    -0.31378475
O       2.80686901     2.03692902     2.11059700    -0.47056270     0.15421920     1.81951202
O       1.86592402     4.10170700     6.68980302    -0.59323137    -2.90452901     1.02779398
O       0.14566699     0.83976302     2.16168102     0.56945122    -1.15530481     1.26474848
O       2.17567998     0.87354898     6.51972699     2.18814638     2.57306561     1.20986338
O       2.91831300     4.64410902     2.26498902     1.16679379     1.71656372    -0.32835571
