# total energy = -19070.90514513 eV

CRYSTAL
PRIMVEC
        5.17600016     0.00000000     0.00000000
        0.00000000     5.50899976     0.00000000
        0.00000000     0.00000000     9.26300011
PRIMCOORD
22 1
Ti      2.03636799     3.50433002     3.26922398    -1.18786039    -1.26132094     1.08505916
Ti      3.48105702     2.46754299     5.95421801     0.82146365    -0.26229839    -0.55282492
Ti      4.49493401     2.18318901     1.45540302     0.22661635     1.61491152    -1.66103045
Ti      0.91297099     2.37994801     7.86247399    -1.13032987     2.04800450     1.69208038
Ti      1.91302000     0.61658802     1.46133102    -1.91260398     0.34347740    -0.86457310
Ti      2.95773998     5.44720001     7.96073098     0.71614300     0.32572470     0.08463252
Ti      0.44710302     5.38107799     6.08364101     0.10141669    -0.81875654     0.08210744
Ti      4.56209100     4.92724198     3.33162800    -1.55160246     0.11769460     3.42356603
O       3.68286702     3.39630801     4.24182102     0.47304613    -0.97586565     2.40103998
O       1.03147002     2.22158299     0.58680899    -1.60015544     0.51682638    -4.28521809
O       4.87471902     3.83859002     7.12219999    -2.00368098    -0.52868405    -0.99231121
O       3.40912902     1.14165700     0.20044901     1.62211756    -0.13246534    -1.06615357
O       1.64454801     5.23382399     0.02009598    -1.06347345    -1.67735233    -1.65864806
O       4.19622800     0.62331598     4.73336699     0.49325167     0.54371216     2.15718078
O       1.28985399     4.72310302     4.51506698    -1.52763154    -0.20848286     0.45836719
O       0.21199402     3.82307502     2.21925799     1.37377307    -2.05280166    -0.90615505
O       4.66416500     1.09990502     7.16861302    -0.87548563     0.95605607     0.73079444
O       2.73569102     2.05304898     2.12195299     0.55030987     3.34233945     3.71854520
O       1.96334301     3.95952300     7.38514801     2.06244536    -1.09981138    -1.65287053
O       5.14487602     0.85240200     2.29382299     2.17463960    -0.76070640     0.82952406
O       1.97657302     1.24093102     6.87018198     0.99208521    -1.08865048    -1.45189838
O       2.82497798     4.91288799     2.53298300     1.24551534     1.05844849    -1.57121381
