# total energy = -19959.82946199 eV

CRYSTAL
PRIMVEC
        5.26814532     0.00000000     0.00000000
        0.83635907     5.54417057     0.00000000
        0.00000000     0.00000000     9.45559859
PRIMCOORD
24 1
Ti      2.40507489     3.28547029     3.50795967     0.63208538    -1.08383557     0.66324356
Ti      3.69942944     2.25870012     5.94763914    -0.63208538     1.08383557    -0.66324356
Ti      4.88416877     2.25870200     1.21980192    -0.98504475    -0.41106967     0.44158250
Ti      1.22033558     3.28546863     8.23579699     0.98504475     0.41106967    -0.44158250
Ti      1.98689547     0.51338510     1.21983984     0.63236691    -1.08304161    -0.66026545
Ti      4.11760887     5.03078547     8.23575907    -0.63236691     1.08304161     0.66026545
Ti      0.80215613     0.51338307     5.94760122     0.98480615     0.41023303     0.43951945
Ti      5.30234821     5.03078750     3.50799759    -0.98480615    -0.41023303    -0.43951945
O       1.96189748     1.95219664     4.82511963     0.48190513     0.74353837    -0.43950839
O       4.14260685     3.59197377     4.63047912    -0.48190513    -0.74353837     0.43950839
O       1.26120182     1.95221905     0.09735068    -0.00682474    -0.22497470     0.39734306
O       4.84330257     3.59195141     9.35824786     0.00682474     0.22497470    -0.39734306
O       3.72442741     0.81988843     0.09732001    -0.48211776    -0.74327869    -0.43946006
O       2.38007691     4.72428199     9.35827853     0.48211776     0.74327869     0.43946006
O       4.42512313     0.81986607     4.82515035     0.00665145     0.22461191     0.39718673
O       1.67938114     4.72430441     4.63044845    -0.00665145    -0.22461191    -0.39718673
O       0.70012489     3.37227882     2.55419312    -0.08896586     0.18735276     0.08566482
O       5.40437943     2.17189155     6.90140568     0.08896586    -0.18735276    -0.08566482
O       3.15311724     2.17183998     2.17363636     0.60285270     0.11954631    -0.27220485
O       2.95138708     3.37233038     7.28196228    -0.60285270    -0.11954631     0.27220485
O       0.28194546     0.60019347     2.17360612    -0.08899208     0.18724708    -0.08672231
O       5.82255887     4.94397689     7.28199247     0.08899208    -0.18724708     0.08672231
O       2.53320765     0.60024503     6.90143582    -0.60378421    -0.11942907    -0.27169037
O       3.57129668     4.94392533     2.55416294     0.60378421     0.11942907     0.27169037
