# total energy = -19914.89978505 eV

CRYSTAL
PRIMVEC
        6.40205975     0.00000000     0.00000000
        3.20648732     6.01209862     0.00000000
        0.00000000     0.00000000    11.85722765
PRIMCOORD
24 1
Ti      4.22060018     3.56276408     4.39894691     0.24052679    -2.51914673     0.42387711
Ti      5.38794705     2.44933469     7.45828087    -0.24052679     2.51914673    -0.42387711
Ti      6.82769023     2.44933684     1.52961961    -1.07449783    -1.38419015     0.65514330
Ti      2.78085720     3.56276221    10.32760823     1.07449783     1.38419015    -0.65514330
Ti      2.61735677     0.55671497     1.52966717     0.24052679    -2.51914673    -0.42387711
Ti      6.99119059     5.45538403    10.32756073    -0.24052679     2.51914673     0.42387711
Ti      1.17761348     0.55671266     7.45823331     1.07449783     1.38419015     0.65514330
Ti      8.43093386     5.45538628     4.39899441    -1.07449783    -1.38419015    -0.65514330
O       3.15535109     2.11696217     6.05065253     1.77482469     2.02621285    -0.99577988
O       6.45319623     3.89513665     5.80657524    -1.77482469    -2.02621285     0.99577988
O       2.30384665     2.11698637     0.12207681     0.42507807    -1.32214324     1.82184041
O       7.30470074     3.89511249    11.73515059    -0.42507807     1.32214324    -1.82184041
O       4.84995269     0.88908731     0.12203833    -1.77482469    -2.02621285    -0.99577988
O       4.75859461     5.12301145    11.73518907     1.77482469     2.02621285     0.99577988
O       5.70145720     0.88906315     6.05069095    -0.42507807     1.32214324     1.82184041
O       3.90709005     5.12303568     5.80653676     0.42507807    -1.32214324    -1.82184041
O       2.18296897     3.65689915     3.20293300     0.67190844     3.20438634     2.97579565
O       7.42557835     2.35519967     8.65429471    -0.67190844    -3.20438634    -2.97579565
O       4.68973446     2.35514352     2.72571854     0.64728112     2.09248100     1.92106060
O       4.91881285     3.65695530     9.13150898    -0.64728112    -2.09248100    -1.92106060
O       0.57972543     0.65084981     2.72568070     0.67190844     3.20438634    -2.97579565
O       9.02882187     5.36124895     9.13154683    -0.67190844    -3.20438634     2.97579565
O       3.31556932     0.65090596     8.65433250    -0.64728112    -2.09248100     1.92106060
O       6.29297798     5.36119280     3.20289515     0.64728112     2.09248100    -1.92106060
