# total energy = -19958.50214410 eV

CRYSTAL
PRIMVEC
        5.93400000     0.00000000     0.00000000
        0.00000000     9.29699974     0.00000000
        0.00000000     0.00000000     4.64899994
PRIMCOORD
24 1
Ti      4.53253200     6.94754102     2.08030901    -0.04296264     0.99713125     1.61764769
Ti      4.40370099     2.51573802     2.41485201    -1.04674739    -0.43627369     0.35207748
Ti      1.50049702     6.79823101     2.39252698    -0.79328306     1.03661879     0.72590548
Ti      1.44579998     2.36356400     2.42688201     1.12471150    -0.84532093    -0.22240848
Ti      2.95739300     4.90494298     0.05580402     0.70500240    -2.01049415    -0.93257906
Ti      2.91313701     9.08234799     0.05381399     0.20037129     1.56028225    -0.61843179
Ti      0.10197299     4.62760801     4.56766799    -0.85957230    -1.66045220    -0.22194465
Ti      5.87058298     9.25588400     0.01637999    -0.49532244     0.63873297     0.59981776
O       4.46814499     5.58707801     0.81176399     0.24923898     0.88316809     0.84768043
O       4.49860602     0.66997100     1.03822603    -0.33874682     0.91027781    -0.36071202
O       1.39019002     5.72941801     0.68635099     0.55462650     0.11005483     0.67126335
O       1.48440997     0.63082802     0.94959900     0.18060824     1.41732320     0.04068849
O       4.51653698     8.32172200     3.74563501    -0.26616250    -0.33686143    -0.53001280
O       4.44154003     4.05794902     3.75769300    -1.60895813    -3.27231131    -1.23266753
O       1.47672600     8.18529799     3.65890000    -0.09697176     0.92735072     0.70029651
O       1.54330200     3.79805398     3.66575602     0.62169683     0.72346319     0.99442542
O       3.05070499     6.17453398     3.17130602    -0.15352166    -1.36300811     0.59232120
O       2.97291800     1.51427102     3.42378998     0.51969033     0.41289772    -1.35907304
O       5.81473001     5.70096902     3.03749303     1.21596307     3.50839549    -1.46661435
O       5.83430603     1.74950301     3.34748998     0.49955473    -2.00195654     0.79992243
O       2.83221501     7.77842699     1.37229102     1.39674177    -0.64561684     0.02563442
O       2.92874102     3.22088501     1.34702402     0.55003836     0.46820860     0.37094450
O       0.06638301     7.90326202     1.48477601    -0.45994276    -1.18880552    -0.08152406
O       0.17052800     3.32346798     1.48424799    -1.65605279     0.16719530    -1.31265792
