# total energy = -4986.24863585 eV

CRYSTAL
PRIMVEC
        3.22222905     0.00000000     0.00000000
        1.94182694     4.66038432     0.00000000
       -0.00001238    -0.00006708     5.15698574
PRIMCOORD
6 1
Ti      2.58202172     2.33015847     2.57849281     0.00000000     0.00000000     0.00000000
Ti      0.00000000     0.00000000     0.00000000     0.00000000     0.00000000     0.00000000
O       1.98954550     0.90822708     1.00502054    -0.22458466     0.45229835     0.02709815
O       3.17449793     3.75208985     4.15196503     0.22458466    -0.45229835    -0.02709815
O       0.59247091     1.42190431     3.58351448     0.22431829    -0.45187798     0.02703593
O       1.34934362     3.23841282     1.57347114    -0.22431829     0.45187798    -0.02703593
