# total energy = -19518.12400887 eV

CRYSTAL
PRIMVEC
        7.60600008     0.00000000     0.00000000
        0.00000000     7.60600008     0.00000000
       -1.89786986    -1.89786986     4.85670466
PRIMCOORD
23 1
Ti      3.83018102     6.52616400     1.20321000    -0.40046721    -0.13576998     0.61597767
Ti      3.85628697     2.79082298     1.14497198    -0.07943298     0.66491915     1.18196613
Ti     -0.00553398     6.75913900     1.28973598     0.14908599    -1.33506509    -1.28919223
Ti      0.03384602     2.88076602     1.13483998    -0.48525451     2.03294348     0.59581764
Ti      5.70140723     2.89340420     3.58568981    -1.61142922     0.57533288     2.32350936
Ti      5.62986120    -0.94413577     3.63961080    -0.03832025    -0.25936887    -0.01950954
Ti      1.88613023     2.83832822     3.58371883     1.77840778    -0.85993534     0.00420376
Ti      1.84547825    -1.12288079     3.71594779     0.52993361     1.90653669    -0.51584268
O       4.06549000     4.70497499     0.62776699    -0.65294629     0.88802465     1.61770348
O       3.87733198     0.91968799     0.88554701    -0.45544101    -0.11362403    -0.77326470
O      -0.24709598     4.70746398     0.84765702     0.86789805     1.52184964     0.44729704
O      -0.15019601     1.03198502     0.68447500     0.40247550    -1.24106579     0.93556462
O       5.92667524     4.72277223     4.17128381    -0.00310769     0.77207326    -0.56228916
O       5.58631721     1.05456522     4.10384683     0.60524922    -1.39965149    -1.96579396
O       1.83168625     4.70839422     4.06277982    -0.86646491    -0.27918283     0.20657845
O       1.94832025     0.92781822     4.07293881    -0.51206418    -0.36208679    -0.62033440
O       3.80519925     3.11620724     3.22120781    -0.35837155    -0.71375881    -0.81099669
O       3.71027924    -1.16756377     3.31955180     1.56729647     0.26495768    -0.86243934
O      -0.00681279    -0.91690976     3.22989579     0.11362532     0.11192273     0.21098866
O       5.71216498     6.85016002     1.63937498    -0.56591544    -0.59090349     0.53709748
O       5.72473702     2.95886501     1.79131801     0.77098722    -0.82966830    -1.75377300
O       1.96863901     6.58896401     1.53838500    -0.80408916     0.05899604     0.88365403
O       1.86964800     3.02977201     1.64451202     0.04834576    -0.67747488    -0.38692289
