# total energy = -4988.24516945 eV

CRYSTAL
PRIMVEC
        3.68720105     0.00000000     0.00000000
        1.25216535     3.46807346     0.00000000
       -2.46971684    -1.73406035     4.78168702
PRIMCOORD
6 1
Ti      0.93901771     2.60118812     1.19542180     0.00042860    -0.00042860     0.00000000
Ti      1.53063121    -0.86717546     3.58626531    -0.00042860     0.00042860    -0.00000000
O       0.31307975     0.86701359     0.77889779     0.00007353     0.00033964    -1.01101547
O       2.15656900     0.86699895     4.00278943    -0.00007353    -0.00033964     1.01101547
O      -0.31304985    -0.86699264     3.16974130     0.00033964     0.00007353    -1.01101547
O       2.78269853     2.60100514     1.61194592    -0.00033964    -0.00007353     1.01101547
