# total energy = -19958.64367792 eV

CRYSTAL
PRIMVEC
        5.93400000     0.00000000     0.00000000
        0.00000000     9.29699974     0.00000000
        0.00000000     0.00000000     4.64899994
PRIMCOORD
24 1
Ti      4.37365801     6.73614201     2.25055200     1.40270519     0.57568024     0.81112421
Ti      4.50089498     2.36077798     2.31236102    -0.62597386    -2.75998257     0.82746924
Ti      1.50515198     7.03450400     2.27700298    -0.95902518     0.00490387     0.51443422
Ti      1.49291697     2.53864398     2.31794902    -0.27187781    -2.88607980     0.36709428
Ti      2.90373702     4.65493202     4.64364001     0.06410045    -1.75550361     0.16735548
Ti      2.97546800     9.14477402     4.50781201    -0.82567178     3.44908063     0.77901909
Ti      5.91936000     4.68153699     0.08484098     0.99787379    -1.41867097    -1.09536697
Ti      0.02018901     9.15615202     0.18418797     0.30628689     3.06249893     0.89740661
O       4.52113998     5.59213801     0.79220200    -1.67054816     2.09969886     1.58748350
O       4.55948898     1.07089500     0.84508601    -0.34178304    -0.89589120    -0.03543753
O       1.49059500     5.62867600     0.88288001     0.36675617    -0.32460395    -0.30032964
O       1.50480701     0.86004702     0.85365699     0.08136002     0.08913452     0.10328048
O       4.51777801     8.53345899     3.80467002    -0.27457644    -2.12777069    -1.64705855
O       4.47975800     3.76529600     3.96005101    -0.36266118    -0.34920736    -1.44822941
O       1.44195302     8.47742198     3.75493498     0.39481695    -1.66024523    -1.33305423
O       1.51867600     3.60561000     3.87940302    -0.36978982     1.59186749     0.72026139
O       2.80658198     6.04771501     3.33752398     2.02568937     0.78539029    -1.37327479
O       2.90016698     1.49858298     3.12584901     0.53907337    -0.77880389     0.60372147
O       0.18335097     6.01417702     2.99997499    -2.80125136    -1.41736537     2.53432190
O       0.09811798     1.47668499     3.03215500    -0.98751970     0.08082471     0.65381018
O       2.97596098     7.79934700     1.39421499     1.67157197     0.19181105    -0.12503048
O       2.94709701     3.32790100     1.49624502     0.63510565     1.60850613    -1.03460484
O       5.90379398     7.73173101     1.47980200    -1.07919910     1.79459056    -1.13674709
O       5.74315397     3.47960099     1.57971898     2.08453783     1.04013760    -1.03764877
