# total energy = -19515.45848854 eV

CRYSTAL
PRIMVEC
        5.17600016     0.00000000     0.00000000
        0.00000000     5.50899976     0.00000000
        0.00000000     0.00000000     9.26300011
PRIMCOORD
23 1
Ti      1.96174902     3.19269299     3.38290099    -1.36463613     0.56552181     3.07074061
Ti      3.30655198     2.30011998     5.99599402    -0.81016751     1.14584906    -3.45480571
Ti      4.18907797     2.20724001     1.53212700     1.64471833     0.52773429    -1.60858866
Ti      0.84512999     3.36475402     7.76041300    -1.18205869     1.35394214     2.72521918
Ti      2.04443900     0.19210902     1.39192403    -0.08580314    -1.53429918     0.21934732
Ti      3.23799098     5.27746598     7.87949598     1.25373901    -1.27193112     3.29331929
Ti      0.64949099     0.59728898     5.91742501     0.61947283    -0.32757769    -4.27259474
Ti      4.57090502     4.83516101     3.37804499     0.59058004     0.14714609     2.30626188
O       1.78641498     2.00251001     4.76877302    -0.78098676    -0.54792928     1.29724107
O       3.65687198     3.52534402     4.54222198    -0.25284238     0.20306992    -0.02916506
O       4.88662598     3.18754600     0.02548200    -0.22807185    -1.14411973    -0.88232888
O       3.07912499     1.10593500     0.25616502     1.75350072     0.97009532    -2.02009799
O       1.74079201     4.70274102     9.09789501     0.48118265    -0.40085853    -0.92983286
O       4.32544002     0.56218002     4.83156001    -0.79716955     1.08027922    -1.05638621
O       1.02678400     4.66305701     4.31487002     0.80979187     0.53456546     0.06644324
O       0.15462797     3.19653201     2.58060398     1.54934143    -0.35663297     0.17009345
O       5.11313501     2.11892398     6.61906800    -0.68560471     0.54859957     1.53658104
O       2.72987800     1.71714800     2.63220802     1.01637314    -2.23962477    -2.04363594
O       2.60128402     3.71431501     7.06738797     0.27065782    -1.87387673    -0.30282516
O       0.36736601     0.53909398     1.88462900    -2.89617498     0.92897720     0.36336052
O       5.10211098     4.80728803     6.98454501    -1.12875276    -0.41935891     1.71522289
O       2.42388401     0.65950699     6.63922500     0.09630250     0.94440151     0.42517912
O       3.05580901     4.19952197     2.14297598     0.12660862     1.16602785    -0.58874736
