# total energy = -19958.75084293 eV

CRYSTAL
PRIMVEC
        7.60600008     0.00000000     0.00000000
        0.00000000     7.60600008     0.00000000
       -1.89786986    -1.89786986     4.85670466
PRIMCOORD
24 1
Ti      3.79447902     6.54221601     1.28235401     1.05703849     0.60871224     0.52148059
Ti      3.50994602     2.79593203     1.27557298     1.11170017    -0.62391801     0.93636064
Ti      0.22944099     6.54197698     1.15380098    -1.45588642     2.23137899    -1.49975074
Ti      0.01596999     3.03214400     1.14421801    -1.49419664    -1.45396298    -0.92902451
Ti      5.72810020     2.93144823     3.39418580    -0.31273805     1.05834693    -0.32109105
Ti      5.90265122    -0.89566276     3.56198483    -1.96461048    -0.54669644     1.45456539
Ti      1.76568821     2.78451725     3.77820782     0.01295348     0.38930784     0.64590558
Ti      1.85704321    -1.01204080     3.69620080     2.61632649     0.02136793     0.91713289
O       3.34821802     4.60243801     0.97740499     1.23827845     1.77178281    -1.07476677
O       3.84947498     0.92306901     0.92114403    -0.50918609     0.02430182    -1.22948888
O       0.47831300     4.83316501     0.84862801    -1.21254813    -1.96359566    -0.62248128
O       0.11549299     1.03123798     0.65676099     0.06512710     0.96828501     0.28374242
O       5.78153520     4.74165422     4.03036983    -0.64547877     0.83080756     0.41609463
O       5.82041322     1.16781725     3.88197483     0.00037255    -2.34929085     1.34075469
O       1.90017020     4.69239523     4.07480680     0.57781143     0.28995884     1.60978268
O       1.56515724     0.92271621     3.97926279     0.43030590    -1.00317643     1.06481480
O       3.77712222     2.87759720     3.15174181    -1.13477017    -0.46769181     0.50307226
O       3.85348323    -1.00893278     3.37115082    -1.02699334     0.32869998    -1.09218343
O      -0.03557479     3.11267123     3.39377981    -0.51755092    -0.48829098    -1.07024780
O       0.15037323     6.30562923     3.05095180    -1.30881464     0.80626920     1.29476947
O       5.67638599     6.49950501     1.72003202     0.68954338     0.08639116    -1.43395773
O       5.63015399     2.99001101     1.49996001     1.35261905     0.22348397    -0.03902396
O       1.98484798     6.79126598     1.57711098     0.19003879     0.48320868     0.95761056
O       1.64663000     2.91364798     1.95333002     2.24065784    -1.22567978    -2.63406994
