# total energy = -39481.09438748 eV

CRYSTAL
PRIMVEC
        5.93188753     0.00000000     0.00000000
        0.00000000     9.29428401    -0.00002646
        0.00000000    -0.00002646     9.29428401
PRIMCOORD
47 1
Ti      4.44891576     6.98355123     6.93853414     0.00000000    -0.01916604     0.02364053
Ti      4.44891576     7.04725671     2.40010148     0.00000000     0.03399154     0.03399154
Ti      4.44891576     2.39693950     7.04409473     0.00000000     0.00056076     0.00056076
Ti      4.44891576     2.29140537     2.33642246     0.00000000     0.02364053    -0.01916604
Ti      1.48297199     6.94108091     6.98143632     0.00000000    -0.00641593     0.00235539
Ti      1.48297199     7.00321352     2.35605829     0.00000000     0.09121917     0.09121917
Ti      1.48297199     2.13989152     6.78704675     0.00000000     0.03739877     0.03739877
Ti      1.48297199     2.33430755     2.29395214     0.00000000     0.00235539    -0.00641593
Ti      2.96330856     4.65004593     4.64035566    -0.00509233     0.00052168    -0.02547938
Ti      3.09035049     4.75902687     0.11187164    -0.03682901    -0.00065409    -0.00065409
Ti      3.00328826    -0.01206993     4.63508531     0.03116384     0.01942803     0.01942803
Ti      2.96330856    -0.00677312     0.00291715    -0.00509233    -0.02547938     0.00052168
Ti      0.00263520     4.65004593     4.64035566     0.00509233     0.00052168    -0.02547938
Ti     -0.12440673     4.75902687     0.11187164     0.03682901    -0.00065409    -0.00065409
Ti     -0.03734449    -0.01206993     4.63508531    -0.03116384     0.01942803     0.01942803
Ti      0.00263520    -0.00677312     0.00291715     0.00509233    -0.02547938     0.00052168
O       4.44891576     5.55209609     5.54468875     0.00000000    -0.01551301     0.00747009
O       4.44891576     5.62755088     0.98039565     0.00000000    -0.01562331    -0.01562331
O       4.44891576     0.91891473     5.56606996     0.00000000     0.01309772     0.01309772
O       4.44891576     0.89755997     0.90496731     0.00000000     0.00747009    -0.01551301
O       1.48297199     5.57052435     5.52663930     0.00000000     0.00121896     0.00650129
O       1.48297199     5.44571992     0.79856469     0.00000000     0.03917334     0.03917334
O       1.48297199     0.87593406     5.52308929     0.00000000    -0.07893547    -0.07893547
O       1.48297199     0.87951052     0.92339558     0.00000000     0.00650129     0.00121896
O       4.44891576     8.38536035     8.36776626     0.00000000    -0.03040639    -0.03284843
O       4.44891576     8.38682769     3.73967246     0.00000000    -0.05997486    -0.05997486
O       4.44891576     3.75519676     8.40235199     0.00000000     0.03792353     0.03792353
O       4.44891576     3.72063748     3.73823157     0.00000000    -0.03284843    -0.03040639
O       1.48297199     8.38625316     8.36771301     0.00000000    -0.01661782    -0.05105930
O       1.48297199     8.35658678     3.70943154     0.00000000     0.07334229     0.07334229
O       1.48297199     3.72058423     3.73912438     0.00000000    -0.05105930    -0.01661782
O       2.94076126     5.99604421     7.87388864     0.01238141    -0.04096952     0.03917977
O       2.96614730     6.04802715     3.21601990     0.02314996     0.01402049    -0.03156313
O       2.92055694     1.48437817     7.91625062     0.03045396     0.00240244     0.02013997
O       2.97609646     1.40875981     3.22407336    -0.03055860    -0.01818876     0.00049622
O       0.02518250     5.99604421     7.87388864    -0.01238141    -0.04096952     0.03917977
O      -0.00020353     6.04802715     3.21601990    -0.02314996     0.01402049    -0.03156313
O       0.04538682     1.48437817     7.91625062    -0.03045396     0.00240244     0.02013997
O      -0.01015270     1.40875981     3.22407336     0.03055860    -0.01818876     0.00049622
O       2.97609646     7.87120214     6.05588858    -0.03055860     0.00049622    -0.01818876
O       2.96614730     7.86317513     1.40087192     0.02314996    -0.03156313     0.01402049
O       2.92055694     3.26909538     6.13153340     0.03045396     0.02013997     0.00240244
O       2.94076126     3.22675986     1.34891543     0.01238141     0.03917977    -0.04096952
O      -0.01015270     7.87120214     6.05588858     0.03055860     0.00049622    -0.01818876
O      -0.00020353     7.86317513     1.40087192    -0.02314996    -0.03156313     0.01402049
O       0.04538682     3.26909538     6.13153340    -0.03045396     0.02013997     0.00240244
O       0.02518250     3.22675986     1.34891543    -0.01238141     0.03917977    -0.04096952
