# total energy = -4981.34161391 eV

CRYSTAL
PRIMVEC
        4.15131245     0.00000000     0.00000000
        0.00000000     2.46721835     0.00000000
        0.00000000    -0.00009849     5.62489218
PRIMCOORD
6 1
Ti      2.07565623     1.23355978     2.81244583     0.00000000     0.00000000     0.00000000
Ti      0.00000000     0.00000000     0.00000000     0.00000000     0.00000000     0.00000000
O       2.07565623     0.48080527     1.09620855     0.00000000    -0.81833487     0.71363643
O       2.07565623     1.98631428     4.52868312     0.00000000     0.81833487    -0.71363643
O       0.00000000     0.75271555     3.90865563     0.00000000     0.81801117     0.71281033
O       0.00000000     1.71440400     1.71623604     0.00000000    -0.81801117    -0.71281033
