# total energy = -19957.30488539 eV

CRYSTAL
PRIMVEC
        5.93400000     0.00000000     0.00000000
        0.00000000     9.29699974     0.00000000
        0.00000000     0.00000000     4.64899994
PRIMCOORD
24 1
Ti      4.32953199     7.09183501     2.25495899     3.63227206    -0.46277946    -0.96496828
Ti      4.35025901     2.21998101     2.39316998     2.86869219     3.23349690    -0.82069001
Ti      1.55292001     6.86818401     2.62017099    -2.88807857    -0.59429580    -1.88549761
Ti      1.50678502     2.34414197     2.29136998    -2.09918515     1.42832804    -0.78934773
Ti      2.95337702     4.51128802     0.03710702     1.89130033     3.02655361     1.15037060
Ti      2.89890500     0.22907602     4.50139997     0.43250933    -4.55658836     1.22539953
Ti      0.09146199     4.54706099     4.62934598    -2.07435857     2.95925548     1.41527969
Ti      5.77515798     0.33836800     4.56659101    -0.10496687    -3.74410352     1.08791103
O       4.44678401     5.40077402     0.86534800    -0.01321882    -0.20927271     0.35541478
O       4.33046800     1.10935999     0.76169302     1.54363872     0.14845092     0.23166368
O       1.54083699     5.34272999     1.07147698     0.04939862     0.02360119    -1.24626276
O       1.70721201     1.05007499     0.87482699    -2.42286505    -0.08409490    -0.67955310
O       4.52060202     8.56299502     3.68350002     0.57714294     0.46301189     1.06244116
O       4.68611099     3.48128398     3.81634298    -1.63929819    -0.66008702    -1.00786716
O       1.83570302     8.30464899     3.64786998    -1.40090130     1.29408221     1.35650116
O       1.50628600     3.68605600     3.77798499     0.21079763    -1.53639463    -1.18402147
O       3.06428702     5.88509799     3.31815202    -0.72689921     0.59955140    -0.59554176
O       3.02175900     1.25563199     3.03019498    -1.36408952     0.77760396    -0.23196450
O       5.73964299     6.27959900     3.39050902     2.46732201    -1.89263859     0.33676347
O       0.03975502     1.20955801     2.97711602     0.30317997     0.43299836     0.51350786
O       2.90354900     7.82468401     1.42666202    -0.04157013     0.03126180    -0.11777842
O       2.92450299     3.27437102     1.55126300     1.32160357    -0.95332967     0.36003711
O       0.01542001     7.78321302     1.41965900    -0.60579044     0.79321570    -0.10375202
O       0.07254798     3.15334501     1.40601199     0.08336445    -0.51782705     0.53195476
