# total energy = -19069.49326607 eV

CRYSTAL
PRIMVEC
        5.93400000     0.00000000     0.00000000
        0.00000000     9.29699974     0.00000000
        0.00000000     0.00000000     4.64899994
PRIMCOORD
22 1
Ti      4.55725701     7.09442602     2.29548100    -2.21054019     0.70166074    -0.40552611
Ti      4.26573999     2.26085799     2.00547102     3.17737329    -0.65152730     1.72701500
Ti      1.51822001     7.13873303     2.75498101     3.72893015    -0.08139781    -0.08298239
Ti      1.47766699     2.34499601     2.19469300     0.09856456    -0.17468596    -0.93814370
Ti      3.03375100     4.69196501     4.51868899     1.35034285     0.67541517    -0.60405700
Ti      2.81577998     0.05166998     0.10783600     0.71385729     0.37236555     1.55083087
Ti      0.02550603     4.67346302     4.45578198    -0.48063552    -0.93453181     0.02190221
Ti      5.77643801     8.80902402     0.20336001     0.31480933     0.60003014     0.14556435
O       4.09730700     5.98344299     0.85046002     1.21658579    -2.58513360     0.71209917
O       5.00053398     0.32859103     1.60507202    -3.62723732     2.27866725    -0.29533784
O       1.11996798     0.69714800     1.10500401     3.43608627     2.26440045    -0.28976883
O       4.21578502     8.29551899     3.92583700     0.45053560     1.24821037    -0.33421757
O       4.41668600     3.98980702     3.49014400     0.99238577    -1.19671424    -0.43536300
O       1.45694102     8.72707902     3.71568299    -0.49021442     0.03735223    -0.59076362
O       1.70819199     4.16145302     3.30595200    -2.25244533    -1.39146098     0.16572592
O       3.09822998     6.22811301     3.27995500    -0.98997330    -0.62720876     0.02495899
O       3.26129198     1.39426003     3.19196902    -1.47778348     0.30735956     1.03220754
O       0.11741702     6.50711098     3.74095501    -0.83163288    -1.31820945    -0.00276394
O       2.94964902     8.00544800     1.51925100    -0.48691930     0.55912336     0.06768072
O       2.95579801     2.60973101     0.89916100    -0.96931962     1.66450452    -1.26333592
O       0.40216503     7.62325899     1.45564898    -1.21499299    -2.06745079    -0.62729747
O       0.10305499     3.22191098     1.12395502    -0.44777604     0.31923189     0.42157289
