# total energy = -39040.44187267 eV

CRYSTAL
PRIMVEC
        7.60629642    -0.00000847    -0.00005503
       -0.00000847     7.60629642    -0.00005503
       -3.80314186    -3.80314186     9.70738094
PRIMCOORD
46 1
Ti      1.88151283     4.82011715     6.13502307     0.03492614    -0.02372255    -0.01007461
Ti      3.78309480     6.72172895     1.28135239     0.03493719    -0.02386987    -0.01038700
Ti      1.92657825     0.88605794     6.06034324     0.00195661     0.05121845    -0.00823422
Ti      3.82813028     2.78765465     1.20667858     0.00206074     0.05085875    -0.00837306
Ti     -1.88288223     4.73706937     6.08527504    -0.01135040    -0.00879678     0.00584875
Ti      0.01868784     6.63865348     1.23159864    -0.01138819    -0.00876155     0.00554047
Ti     -1.93040368     0.96324168     6.02143808     0.00818202     0.01018851    -0.00653060
Ti     -0.02881901     2.86482283     1.16777751     0.00820748     0.01014403    -0.00665325
Ti      3.80624641     0.96575658     8.48704722     0.00780407     0.00771923    -0.02392541
Ti      5.70781828     2.86732347     3.63333937     0.00791566     0.00772360    -0.02381948
Ti      3.81071355    -2.86719501     8.50349764     0.00261404     0.00262793     0.01540811
Ti      5.71227580    -0.96563032     3.64979588     0.00258293     0.00255311     0.01546905
Ti     -0.00322340     0.96369699     8.35144278    -0.00077467    -0.00952466    -0.01074722
Ti      1.89835730     2.86524694     3.49780420    -0.00091300    -0.00951309    -0.01070119
Ti     -0.00123107    -2.86722707     8.58380325     0.00530779    -0.00772797    -0.04096463
Ti      1.90032370    -0.96563728     3.73008376     0.00538749    -0.00771871    -0.04071755
O       1.89446008    -0.95318770     5.69459531    -0.00570811     0.00451280    -0.00674555
O       3.79603300     0.94840154     0.84094591    -0.00566466     0.00470821    -0.00698080
O      -1.90057326     2.85674371     5.60968543     0.00692938     0.00886182     0.01309258
O       0.00099994     4.75832291     0.75601392     0.00696512     0.00883226     0.01304810
O      -1.89797517    -0.95326334     5.67561458     0.00514581    -0.00469741    -0.00761458
O       0.00360384     0.94831496     0.82195498     0.00510621    -0.00463570    -0.00762101
O       3.83496729     2.85635775     8.93701247     0.01633397    -0.01941775    -0.01166690
O       5.73653515     4.75791735     4.08330576     0.01635994    -0.01945169    -0.01165996
O       3.77757128    -0.95387643     8.87658328    -0.00029465     0.01923083     0.00547105
O       5.67913823     0.94768002     4.02287242    -0.00027691     0.01926271     0.00542246
O      -0.02809603     2.74462929     9.00900699    -0.01303858    -0.03480632     0.06017206
O       1.87348426     4.64618630     4.15536659    -0.01308306    -0.03518042     0.05976043
O       0.02313089    -0.85703521     8.92554509    -0.00045817    -0.01437967     0.02423806
O       1.92471866     1.04447448     4.07180927    -0.00048491    -0.01420895     0.02437072
O       1.91880590     1.00033039     8.04495395    -0.02836982     0.03197142    -0.00418164
O       3.82036764     2.90186565     3.19129235    -0.02829757     0.03207581    -0.00417342
O       1.88011559    -2.89191570     8.13902785     0.01102618    -0.02582777     0.03297390
O       3.78169637    -0.99037498     3.28534022     0.01104623    -0.02579563     0.03265379
O      -1.91790042     0.92628211     8.00904824     0.00010387     0.00223995    -0.01996925
O      -0.01631585     2.82779581     3.15538719     0.00005451     0.00239164    -0.02005487
O      -1.88194041    -2.83132438     8.09827171    -0.00961130    -0.00980336     0.00154780
O       0.01962170    -0.92978696     3.24458636    -0.00955911    -0.00976557     0.00140871
O       3.78073986     4.63419289     6.50566720     0.00237493     0.02380200     0.00211730
O       5.68231713     6.53577305     1.65193870     0.00223223     0.02382359     0.00238316
O       3.78246796     1.08467269     6.42230048     0.00871424    -0.00484165     0.00712402
O       5.68404804     2.98627604     1.56862248     0.00846176    -0.00487636     0.00729268
O       0.01912772     4.62382800     6.50579564    -0.01720326     0.00418499    -0.01342399
O       1.92070212     6.52541189     1.65208690    -0.01714644     0.00413331    -0.01323913
O       0.02504843     1.07863217     6.40621204    -0.02460032    -0.00292772    -0.00350364
O       1.92661568     2.98020750     1.55253876    -0.02451342    -0.00281433    -0.00337997
