# total energy = -19911.98895929 eV

CRYSTAL
PRIMVEC
        6.19019990     0.00000000     0.00000000
        0.00002178     3.54751640     0.00000000
        0.00000000     0.00000000     9.36525506
PRIMCOORD
24 1
Ti      2.24366272     2.10225504     3.47444296    -1.07599962     2.71461903    -3.90580926
Ti      3.94655911     1.44526165     5.89081249     1.07599962    -2.71461903     3.90580926
Ti      5.33865658     1.44526290     1.20814738    -1.07269652    -2.71562331     3.90904833
Ti      0.85156524     2.10225389     8.15710817     1.07269652     2.71562331    -3.90904833
Ti      2.24365193     0.32849689     1.20818491    -1.07599962     2.71461903     3.90580926
Ti      3.94656990     3.21901989     8.15707063     1.07599962    -2.71461903    -3.90580926
Ti      0.85155445     0.32849549     5.89077495     1.07269652     2.71562331     3.90904833
Ti      5.33866738     3.21902125     3.47448049    -1.07269652    -2.71562331    -3.90904833
O       1.95924508     1.24914089     4.77901812     4.55293713    -3.09844091     5.40549983
O       4.23097674     2.29837575     4.58623732    -4.55293713     3.09844091    -5.40549983
O       1.13590650     1.24915518     0.09642054    -4.55037863    -3.09997380     5.40770327
O       5.05431537     2.29836151     9.26883462     4.55037863     3.09997380    -5.40770327
O       4.23096595     0.52461756     0.09639016    -4.55293713     3.09844091     5.40549983
O       1.95925588     3.02289914     9.26886500     4.55293713    -3.09844091    -5.40549983
O       5.05430458     0.52460326     4.77904850     4.55037863     3.09997380     5.40770327
O       1.13591715     3.02291343     4.58620690    -4.55037863    -3.09997380    -5.40770327
O       0.22491752     2.15780060     2.52978912     3.87483645    -0.92672774     2.04101932
O       5.96530431     1.38971609     6.83546633    -3.87483645     0.92672774    -2.04101932
O       3.32002511     1.38968292     2.15286835     3.87184471     0.92685758    -2.04161710
O       2.87019672     2.15783377     7.21238690    -3.87184471    -0.92685758     2.04161710
O       0.22490672     0.38404235     2.15283846     3.87483645    -0.92672774    -2.04101932
O       5.96531510     3.16347434     7.21241679    -3.87483645     0.92672774     2.04101932
O       2.87018593     0.38407552     6.83549617    -3.87184471    -0.92685758    -2.04161710
O       3.32003590     3.16344117     2.52975923     3.87184471     0.92685758     2.04161710
