# total energy = -4990.35552193 eV

CRYSTAL
PRIMVEC
        2.92231048     0.00000000     0.00000000
        0.00000000     4.57882241     0.00000000
        0.00000000    -0.00005942     4.57882241
PRIMCOORD
6 1
Ti      1.46115519     2.28938144     2.28941115     0.00000000     0.00000000     0.00000000
Ti      0.00000000     0.00000000     0.00000000     0.00000000     0.00000000     0.00000000
O       1.46115519     0.89233346     0.89234504     0.00000000     0.17101365     0.17101365
O       1.46115519     3.68642943     3.68647727     0.00000000    -0.17101365    -0.17101365
O       0.00000000     1.39702390     3.18175712     0.00000000    -0.17095811     0.17095811
O       0.00000000     3.18173899     1.39706519     0.00000000     0.17095811    -0.17095811
