# total energy = -19517.83758838 eV

CRYSTAL
PRIMVEC
        5.93400000     0.00000000     0.00000000
        0.00000000     9.29699974     0.00000000
        0.00000000     0.00000000     4.64899994
PRIMCOORD
23 1
Ti      4.49677999     6.92492499     2.29667800     0.48514781     0.82703163    -0.17142682
Ti      4.44242502     2.30930200     2.33916501     0.36205954     0.05960514     0.44682499
Ti      1.46321002     7.03434202     2.33735602     0.15735903     0.27852822    -0.24450917
Ti      1.44324999     2.37382802     2.31416101    -0.13784281    -0.54285315     0.12529582
Ti      2.96786600     4.61567501     0.06776998    -0.15838438    -0.19533732     0.41265064
Ti      3.00282303     0.02349600     4.61864401    -0.60598276    -0.95547603    -0.45468742
Ti      0.01828598     4.64481003     0.00319798    -0.04595849     0.16078065    -0.12912779
Ti      0.00266599     9.28946701     0.07134500     0.42832152    -0.04640149    -1.03057052
O       4.38087700     5.62322299     0.86148998     0.17427406    -0.33923636    -0.38741757
O       4.39864100     0.90007499     0.81762701     0.45889092     0.05496429     0.77356887
O       1.50391502     5.60131500     0.95605300     0.27135253    -0.70582721    -0.84677231
O       1.47900199     0.94770798     0.97827802    -0.00865562    -0.54363297    -0.69708752
O       4.47177197     8.30656202     3.58016599    -0.58460840     0.75378731     1.69517059
O       4.47848999     3.70514501     3.66338700    -0.39335913     1.14826333     0.41982762
O       1.46187798     8.34996900     3.69465402     0.32916612     0.54777682     0.87287365
O       1.43855502     3.69168798     3.83472999     0.26885110     0.28180715    -1.18010568
O       2.97072700     1.51759801     3.26355400    -0.57822717    -0.62338605    -0.13597644
O       0.04132901     6.03976200     3.24935798    -0.28857121    -0.25055152    -0.13911730
O       5.86233099     1.29295100     3.25379899     0.50588890     1.15381074    -0.80887553
O       2.96711901     7.84909898     1.36660401     0.13651097    -0.16325431     0.45636404
O       3.00680101     3.31633499     1.27851102    -0.44526998    -1.45916741     1.70587256
O       0.06384698     7.80490897     1.45672501    -0.87864372     1.04756192    -1.26120859
O       5.86118098     3.28163202     1.37776800     0.54768117    -0.48879337     0.57843415
