# total energy = -19953.08736063 eV

CRYSTAL
PRIMVEC
        5.39066967     0.00000000     0.00000000
        1.68334310     5.48479690     0.00000000
        0.00000000     0.00000000     9.76098506
PRIMCOORD
24 1
Ti      2.95140601     3.25028559     3.62125584     1.12110758    -2.39810917     1.04296633
Ti      4.12260666     2.23451143     6.13972928    -1.12110758     2.39810917    -1.04296633
Ti      5.33490045     2.23451332     1.25919772    -2.35728930    -0.44828563     0.79353760
Ti      1.73911231     3.25028391     8.50178751     2.35728930     0.44828563    -0.79353760
Ti      2.10973459     0.50788723     1.25923685     1.12110758    -2.39810917    -1.04296633
Ti      4.96427811     4.97690996     8.50174837    -1.12110758     2.39810917     1.04296633
Ti      0.89744078     0.50788518     6.13969014     2.35728930     0.44828563     0.79353760
Ti      6.17657192     4.97691200     3.62129497    -2.35728930    -0.44828563    -0.79353760
O       2.29891468     1.93129027     4.98095597     0.87504160     1.43111460    -0.84299948
O       4.77509800     3.55350681     4.78002915    -0.87504160    -1.43111460     0.84299948
O       1.58192587     1.93131240     0.10049483     0.17682691    -0.52357579     0.68534297
O       5.49208687     3.55348473     9.66049001    -0.17682691     0.52357579    -0.68534297
O       3.93342656     0.81110829     0.10046316    -0.87504160    -1.43111460    -0.84299948
O       3.14058613     4.67368879     9.66052168     0.87504160     1.43111460     0.84299948
O       4.65041543     0.81108621     4.98098763    -0.17682691     0.52357579     0.68534297
O       2.42359721     4.67371093     4.77999748     0.17682691    -0.52357579    -0.68534297
O       1.21976020     3.33616444     2.63668558     0.18286464     0.69789999     0.57455538
O       5.85425249     2.14863264     7.12429953    -0.18286464    -0.69789999    -0.57455538
O       3.55062372     2.14858150     2.24383802     1.23004141     0.35537673    -0.39086773
O       3.52338896     3.33621558     7.51714694    -1.23004141    -0.35537673     0.39086773
O       0.37808869     0.59376592     2.24380684     0.18286464     0.69789999    -0.57455538
O       6.69592393     4.89103117     7.51717811    -0.18286464    -0.69789999     0.57455538
O       2.68171752     0.59381706     7.12433066    -1.23004141    -0.35537673    -0.39086773
O       4.39229517     4.89098002     2.63665440     1.23004141     0.35537673     0.39086773
