# total energy = -19958.36527268 eV

CRYSTAL
PRIMVEC
        7.60600008     0.00000000     0.00000000
        0.00000000     7.60600008     0.00000000
       -1.89786986    -1.89786986     4.85670466
PRIMCOORD
24 1
Ti      3.94347501     6.61387598     1.06599100    -1.41470556    -2.09935639     1.31884348
Ti      3.97581901     2.52147297     1.17314299    -2.88874809     2.24976958     0.41815769
Ti     -0.12824103     6.70757200     1.19679499     1.51623229     2.67893956     0.82557793
Ti     -0.10313998     3.01995202     1.32958298     3.35393950    -2.06678821    -1.35201330
Ti      5.52131022     2.91482424     3.72904382    -0.23068769    -0.01745111    -0.76047475
Ti      5.74977425    -0.77059177     3.74137783     1.30133195    -0.04078568     0.24431685
Ti      1.71608621     2.69178523     3.74118579     0.89156429     1.72283465    -1.07616905
Ti      2.09903723    -0.96258480     3.53315282    -0.57062776    -1.09922646    -2.41125574
O       3.81026702     4.72424398     0.71681202     0.50709424    -0.55997773     0.76103293
O       4.18805597     0.78352799     0.57116498    -0.27115687     1.75687195     1.36242113
O      -0.14309498     4.93415298     0.75601897    -0.09378462    -1.71083196     0.44123181
O      -0.19064002     1.10894300     0.72888102     0.31165176     0.05475089     2.79490356
O       5.47670524     5.06028725     4.06800883     0.26079249    -4.37778530     0.59822625
O       5.42479321     1.05371922     4.10988782     0.42462299     2.18071409     0.52975672
O       2.20199221     4.63772021     4.04786480    -0.78460507     0.43838045    -1.27031595
O       1.94758220     0.94176622     4.09784379     0.28920859    -2.03568557    -0.67912476
O       3.75629925     2.74833121     3.01682680     0.42032873     0.01610951     1.23251018
O       3.89988721    -0.86094376     3.19197283    -2.61579016     0.39241914    -0.64904078
O      -0.15951979     2.72267124     3.39746680     1.17907287     0.83253251    -0.89577267
O       0.00893823    -0.91840580     3.29847282     1.50330529     0.19748702    -0.56820578
O       5.74362103     6.73644899     1.85550298    -0.23253297    -0.35212171    -3.12306026
O       5.76998400     2.92385898     1.67176603    -1.92207619     0.28650919     0.20400554
O       1.95028402     6.49146601     1.45809399     0.23687479     1.09641701     1.20447923
O       1.94440598     2.65490502     1.43241101    -1.17130453     0.45627431     0.84996948
