# total energy = -19958.81528808 eV

CRYSTAL
PRIMVEC
        7.60600008     0.00000000     0.00000000
        0.00000000     7.60600008     0.00000000
       -1.89786986    -1.89786986     4.85670466
PRIMCOORD
24 1
Ti      3.86647300     6.51112098     1.18779798    -2.45565588    -1.15815128    -0.63496450
Ti      3.73558000     2.65870700     1.37623900     0.75148951     0.95651372    -0.58287804
Ti      0.02301799     6.90146900     1.19934801     2.04466155    -2.45122870    -0.81693285
Ti      0.02121001     2.88252601     1.16321801    -1.15036752     2.63541154     0.49664296
Ti      5.66646921     2.88121624     3.61480382    -0.42122064     2.23582160     0.71320988
Ti      5.85550624    -0.80724476     3.52727081    -0.61253033    -1.07320020    -0.59589889
Ti      1.71350022     2.55027625     3.57338781     0.26988006     1.88629773     2.25579033
Ti      1.95931221    -1.00627975     3.76000481     0.55425214    -1.59192097    -0.98936523
O       3.87125100     4.66688100     0.77673298    -0.40555002     0.10479229     0.18318551
O       3.81926102     0.84580099     0.86550300     0.52923479     1.30119697    -0.42787518
O       0.04511098     4.92608102     0.99589402    -0.59561607     0.11361529    -1.12750474
O      -0.11316000     1.15637802     0.50315300    -0.58015447    -1.09082923     2.13571334
O       5.95988122     4.94669221     3.98518079    -0.61219017    -0.70784707     0.35895442
O       5.98255424     1.20368621     4.05351282    -1.64592572    -2.52575678     0.75371891
O       1.69035825     4.70979521     3.95636979     0.71446870     0.35295577     0.36031890
O       1.63294622     0.87102623     4.32544780     0.77960196    -0.17169113    -1.43855743
O       3.60974324     2.63853921     3.34359079     1.34461315     0.22069586    -0.88283925
O       3.78772322    -0.89135976     3.22675782     0.54955859    -0.03207735     0.24207948
O      -0.12767280     2.63593624     3.21526779     2.25259599     1.18323445    -1.17401190
O       0.13645222    -0.64139876     3.24067883    -1.72243073    -0.44606162    -1.90447210
O       5.63181598     6.81692902     1.54641701     3.50447944     0.27524827     0.77509816
O       5.66239899     2.92156601     1.71138198    -0.78708645    -0.23893245    -0.25561351
O       2.04599600     6.75828702     1.48579102    -2.88330172     0.24561963     0.97546893
O       1.79460003     2.67005801     1.51103600     0.57719436    -0.02370609     1.58073332
