# total energy = -19517.60029780 eV

CRYSTAL
PRIMVEC
        5.17600016     0.00000000     0.00000000
        0.00000000     5.50899976     0.00000000
        0.00000000     0.00000000     9.26300011
PRIMCOORD
23 1
Ti      1.82762000     3.27371098     3.44417199    -1.13748886    -0.32530843     1.97841808
Ti      3.41057997     2.27112398     5.78307198    -0.20752564     0.03905019    -0.94950926
Ti      4.34372002     1.93099599     1.58051602     1.24165431     1.00435143    -0.99190651
Ti      1.10062301     3.34575999     7.91142500    -1.90338658    -0.47890748    -0.46013508
Ti      1.89462199     0.38225198     1.19861002     0.98777141    -0.19614465     0.43720854
Ti      3.28817598     5.33896701     7.87443699     0.48525631    -1.54668290    -0.40998929
Ti      0.62314400     0.50021802     5.79711502     0.00975220     0.16280283    -1.42891117
Ti      4.33212099     4.86313999     3.38903801     1.31012796     0.48080264     1.78087938
O       1.57748998     2.01334100     4.88732302     0.80675128     0.86655876    -0.91247020
O       3.42175302     3.77891999     4.59287398    -0.16716162    -0.94270149     0.38673828
O       0.52033602     2.56109200     0.18558400    -0.30119225    -1.20737764     0.20349029
O       3.44411399     0.90560701     0.09977002     0.42978422     0.89160286     0.51559868
O       1.56355198     4.76242300     9.00641899     1.05996827     1.26149861     0.28118494
O       4.18093002     0.89140702     4.66918800     0.64342266    -0.38250316    -0.24153903
O       0.98962798     4.72588802     4.39988901    -0.64679929     0.89774111     0.55591565
O       5.14640402     3.21016801     2.81811498     0.40246907    -0.46028960    -1.43864665
O       5.06886701     1.94093902     6.80517398    -0.74646352     0.76650167     0.65651344
O       2.61968901     1.90508499     2.38634201     0.23023029    -0.18768674    -1.02513084
O       2.91303599     3.55444501     7.15085600    -1.57550138    -0.93055688     1.28891943
O       0.22942998     0.57113402     2.13716001    -0.34047718    -0.59492598    -0.20479153
O       5.07862800     4.74052401     7.12752600     0.16160932     0.29221678     0.13910059
O       2.39506502     0.73658102     6.63396402     0.23210514     0.09362110     1.04746370
O       2.85553998     4.58558800     2.26514100    -0.97490637     0.49633699    -1.20840145
