# total energy = -19069.19180353 eV

CRYSTAL
PRIMVEC
        5.17600016     0.00000000     0.00000000
        0.00000000     5.50899976     0.00000000
        0.00000000     0.00000000     9.26300011
PRIMCOORD
22 1
Ti      1.94489002     3.41386802     2.85219600    -1.10788388    -0.53819971     2.27219681
Ti      3.41606199     2.43413301     5.73415801     0.89719629     1.83435989     1.25816389
Ti      4.39836800     2.40834297     1.35323000    -0.02384133    -1.34214720     1.55508167
Ti      0.98462201     1.99948100     7.96215299    -1.57188872     3.08378433     0.80675822
Ti      1.82283401     0.80431502     1.29254300    -1.85243732    -0.32150371     2.24148805
Ti      3.30321600     5.45221698     8.02903702    -0.91606717    -0.05934263     1.08757807
Ti      0.69362898     4.91261700     6.58657001     1.27471383     1.10927587    -1.89424656
Ti      4.36718602     5.07794197     3.42042600     1.47027663     1.36255303     1.98357263
O       3.09336102     4.03068602     4.37264702    -0.22053363    -1.90856221    -0.28257823
O       1.06936202     2.46554000     0.83339400     0.64977072     1.99225628    -2.24186626
O       5.11211598     3.26498500     6.55551302    -0.23196527    -1.30567686     0.48808632
O       3.40946701     0.91586400     0.45113699     4.03434569     1.79078970    -0.69658152
O       1.37363899     0.41495900     8.84105697    -1.10310574    -3.87206454     0.27862181
O       3.92469298     1.21474199     4.73571199     0.16486048    -1.08689236    -0.07068942
O       0.73988002     4.94801002     4.73205998    -1.44935093     0.52707532     0.58631587
O       0.01313698     3.49125098     2.77293202     0.11592928     1.03002570    -0.23222212
O       4.66127199     1.02268499     7.50815002     0.76809910    -1.00138078    -2.03418173
O       3.02935100     1.93324801     2.67295599    -1.81441043     0.21580151    -1.17811359
O       2.55814898     4.25602699     6.84728199    -1.29678187    -1.78143242     0.76923553
O       0.16320297     0.97250999     2.52092199     0.37992871    -1.32197046    -1.30879818
O       2.26209600     1.19966901     6.96947399     0.85927636     1.96086181    -3.42439418
O       2.68916200     4.69029800     1.90534502     0.97386893    -0.36761004     0.03657344
