# total energy = -19519.40911726 eV

CRYSTAL
PRIMVEC
        7.60600008     0.00000000     0.00000000
        0.00000000     7.60600008     0.00000000
       -1.89786986    -1.89786986     4.85670466
PRIMCOORD
23 1
Ti      3.82448601     6.70918302     1.18539900     0.13778084    -0.83556667     0.11444319
Ti      3.73629497     2.81437502     1.18934402     0.31830449     1.26441270     1.02798502
Ti      0.04528598     6.65619698     1.22026898    -0.40293264    -0.89266909    -0.44751893
Ti      0.01524602     2.79518001     1.13798298    -0.82453663     1.08738035    -0.44539545
Ti      5.57738423     2.89335620     3.63834479     0.12596533    -0.07684927     0.88925364
Ti      5.70709621    -0.95969379     3.60393679    -0.04047869    -0.21129976    -0.30489387
Ti      1.99117424     2.86691623     3.69852479    -0.28329505    -0.12951680     1.52891015
Ti      1.92207925    -0.94136775     3.60210981    -0.20129611    -0.05803291    -0.06527339
O       3.72398001     4.71598500     0.84289898    -0.03693288     0.27604505     0.05056976
O       3.93848699     1.02339499     0.81763299    -0.31368447    -1.21727844    -0.26666823
O       0.12993498     4.73279601     0.73814601     0.05860755     0.52607978     0.71608721
O      -0.01613001     0.95028698     0.73424402     0.01339751    -0.32469625     0.29893688
O       5.61101820     4.73218222     3.99717280     0.52382441     0.65716881     0.49550910
O       5.72555222     0.99576421     4.03064580     0.21715160    -1.21896946    -0.27638598
O       1.92991620     4.73707324     4.06725783    -0.41577248     0.50699756     0.26970574
O       1.76726421     0.94536621     4.06515683    -0.21125503     0.00029285     0.11965636
O       3.77056724     2.84185424     3.35529783    -0.09062731    -0.29791178    -0.80489931
O       3.74285423    -1.01898980     3.21060580     0.84712430     0.49502342    -0.12757279
O      -0.00118276    -1.10728778     3.20076183     0.33641920     0.45460900    -0.01553693
O       5.73313802     6.56822502     1.63870801    -0.46050043     0.38543293    -0.24292640
O       5.74902101     2.83461800     1.78537699     0.74565542     0.12710947    -1.44828418
O       1.92691000     6.79973599     1.56051799    -0.23146956    -0.10453621     0.47980788
O       1.76721701     2.85026599     1.86138098     0.18855089    -0.41322554    -1.54550945
