# total energy = -19941.61571469 eV

CRYSTAL
PRIMVEC
        6.43346012     0.00000000     0.00000000
        0.00002992     5.60221145     0.00000000
        0.00000000     0.00000000    10.57344286
PRIMCOORD
24 1
Ti      2.33183758     3.31986521     3.92267202     0.29205069    -0.54017278     0.53988173
Ti      4.10165252     2.28234601     6.65077126    -0.29205069     0.54017278    -0.53988173
Ti      5.54845617     2.28234782     1.36400737     0.29262507     0.54018126    -0.53984985
Ti      0.88503393     3.31986357     9.20943603    -0.29262507    -0.54018126     0.53984985
Ti      2.33182286     0.51875960     1.36404977     0.29205069    -0.54017278    -0.53988173
Ti      4.10166724     5.08345180     9.20939363    -0.29205069     0.54017278     0.53988173
Ti      0.88501921     0.51875755     6.65072886    -0.29262507    -0.54018126    -0.53984985
Ti      5.54847089     5.08345379     3.92271442     0.29262507     0.54018126     0.53984985
O       2.03624130     1.97263381     5.39554712     0.94402690     1.09530501    -0.54439736
O       4.39724880     3.62957741     5.17789616    -0.94402690    -1.09530501     0.54439736
O       1.18054743     1.97265644     0.10885953    -0.94382610     1.09548319    -0.54510878
O       5.25294273     3.62955483    10.46458345     0.94382610    -1.09548319     0.54510878
O       4.39723408     0.82847162     0.10882521    -0.94402690    -1.09530501    -0.54439736
O       2.03625602     4.77373959    10.46461777     0.94402690     1.09530501     0.54439736
O       5.25292795     0.82844904     5.39558145     0.94382610    -1.09548319    -0.54510878
O       1.18056202     4.77376223     5.17786184    -0.94382610     1.09548319     0.54510878
O       0.23376057     3.40758260     2.85615081    -0.63167477     0.01751205     0.10557313
O       6.19972953     2.19462861     7.71729248     0.63167477    -0.01751205    -0.10557313
O       3.45049707     2.19457655     2.43060447    -0.63141792    -0.01730327    -0.10572072
O       2.98299303     3.40763467     8.14283863     0.63141792     0.01730327     0.10572072
O       0.23374579     0.60647682     2.43057069    -0.63167477     0.01751205    -0.10557313
O       6.19974431     4.99573440     8.14287242     0.63167477    -0.01751205     0.10557313
O       2.98297825     0.60652888     7.71732620     0.63141792     0.01730327    -0.10572072
O       3.45051185     4.99568233     2.85611702    -0.63141792    -0.01730327     0.10572072
