# total energy = -19077.21880931 eV

CRYSTAL
PRIMVEC
        5.17575250     0.00000000     0.00000000
        0.00002837     5.50856584     0.00000000
        0.00000000     0.00000000     9.26345890
PRIMCOORD
22 1
Ti      1.90660470     3.41292820     3.31629106     0.01536518     0.00125264     0.00255953
Ti      3.42521931     2.27254171     5.92682359     0.00839954     0.01860400    -0.01481187
Ti      4.46141874     2.25242537     1.13414212     0.00738987    -0.01663324     0.00906751
Ti      0.74356979     3.27421602     8.09261123    -0.01251845     0.00323856     0.01071996
Ti      1.81228125     0.62190624     1.24383169    -0.00987355    -0.00192499     0.00528002
Ti      3.18748839     4.98481219     8.13557442    -0.02597355    -0.01217392     0.01728553
Ti      0.81418192     0.58269982     5.76532748     0.00904283     0.02374003    -0.00271457
Ti      4.46579109     4.94503707     3.50123243    -0.01387522    -0.00402583    -0.00723226
O       3.46781835     3.50681753     4.53680318    -0.00617605     0.02271828    -0.01607454
O       0.95082018     1.96389902     0.15380860    -0.00312003    -0.00061527    -0.01577861
O       4.13349075     3.60851680     9.13274781     0.00889036     0.00248189     0.02165512
O       3.55357562     0.82487692     0.07953006    -0.00052476    -0.00719858    -0.00625550
O       1.53640273     4.75517976     9.09515602     0.02852177    -0.00691447    -0.00472415
O       4.30717445     0.84442131     4.70342569    -0.00989078     0.03164746     0.00535870
O       0.93420755     4.59406765     4.58980946     0.00112949    -0.00126010     0.00324088
O       0.16983120     3.30725304     2.50454244    -0.01355512     0.00844042     0.00952645
O       5.10066688     1.99591570     6.82441868    -0.02295199    -0.00377361    -0.02187752
O       2.73660496     2.08360765     2.18048976    -0.00043040    -0.00517872    -0.00045766
O       2.33721261     3.37818536     7.06164417     0.01160031    -0.00843939     0.00376744
O       0.19238505     0.52813039     2.17948276     0.00727288    -0.02102392    -0.00436136
O       2.47433581     0.64701259     6.67337532     0.01129537    -0.00900066    -0.00203786
O       2.77239017     4.86645438     2.46934820     0.00998205    -0.01396084     0.00786501
