# total energy = -19073.01378425 eV

CRYSTAL
PRIMVEC
        5.93400000     0.00000000     0.00000000
        0.00000000     9.29699974     0.00000000
        0.00000000     0.00000000     4.64899994
PRIMCOORD
22 1
Ti      4.40394399     7.04425197     2.23438998    -0.32738229    -1.45450239     0.30247883
Ti      4.39778702     2.32779601     2.36937198     0.46296612    -1.20274811    -0.77010430
Ti      1.49488001     7.10848102     2.56038100     0.63272713    -2.40336605    -1.04331548
Ti      1.52807498     2.54615899     2.01336100     0.04736539    -0.06154298     0.19270143
Ti      3.03040401     4.60426600     4.60273001    -0.78724817     1.79183460     0.73284566
Ti      2.93016000     9.23076803     4.58630101     1.40058197     1.84385986     1.25515646
Ti      5.80915000     4.49272401     4.37321499     3.01064748     1.68648103     1.64994076
Ti      5.88024401     9.10681900     0.29745402    -0.06624450     1.96252223    -0.38792382
O       4.59591198     5.65885699     0.69403099    -0.06886754     0.30259453     1.84660914
O       4.50210701     0.72349399     1.13594501    -0.06623678     1.29414032    -1.07739753
O       1.39872999     0.91834701     0.94873300     0.51577454     0.65794451    -1.04373946
O       4.51552398     8.35708400     3.90237598    -0.69287862    -0.15730272    -1.15164741
O       4.37469499     3.70532699     3.79848097    -0.66415733    -2.38640602    -2.32952574
O       1.56094001     8.21921603     3.86516699    -0.84175558     2.10513032     2.33056755
O       1.70546700     3.63767999     3.74537502    -1.88021913     0.65876804    -0.69565978
O       3.10921300     6.09436098     3.31014398    -0.87687789    -0.19801461    -0.81727455
O       2.94751300     1.49310901     2.97518399    -1.39414752    -2.26890039     2.97842074
O       0.06200899     6.12806697     3.29540798    -0.10077083    -1.33564539    -0.79576701
O       2.90160698     8.03069901     1.56449698     0.21104522    -0.62147546    -0.93252764
O       3.14970601     3.14595103     1.32094903    -0.56730230     1.87881196    -0.82295541
O       0.04943198     8.11392399     1.72192901     0.39779172    -2.16759066     0.81501866
O       5.75388098     3.25017402     1.37389803     1.65518890     0.07540817    -0.23590137
