# total energy = -4985.92818003 eV

CRYSTAL
PRIMVEC
        3.68329798     0.00000000     0.00000000
        0.00000000     3.10755618     0.00000000
        0.00000000    -0.00007020     4.87842385
PRIMCOORD
6 1
Ti      1.84164889     1.55374294     2.43921207     0.00000000     0.00000000     0.00000000
Ti      0.00000000     0.00000000     0.00000000     0.00000000     0.00000000     0.00000000
O       1.84164889     0.60560324     0.95073300     0.00000000    -1.76713554    -1.01972175
O       1.84164889     2.50188269     3.92769110     0.00000000     1.76713554     1.01972175
O       0.00000000     0.94811173     3.38994601     0.00000000     1.76574586    -1.01927309
O       0.00000000     2.15937415     1.48847814     0.00000000    -1.76574586     1.01927309
