# total energy = -19962.37471992 eV

CRYSTAL
PRIMVEC
        7.60600008     0.00000000     0.00000000
        0.00000000     7.60600008     0.00000000
       -1.89786986    -1.89786986     4.85670466
PRIMCOORD
24 1
Ti      3.80549098     6.62230699     1.20573798    -0.25847233     0.16767224     0.39189617
Ti      3.79176598     2.84787601     1.21505701     0.23724478    -0.01786455    -0.04940839
Ti     -0.00619201     6.66272502     1.22035000     0.27228533     0.17859275    -0.43144644
Ti     -0.01539202     2.87149298     1.20664700    -0.10951438    -0.35035587     0.08817833
Ti      5.70090721     2.85631824     3.65059080     0.21339290     0.09306343    -0.08329246
Ti      5.71703024    -0.94868479     3.63243881    -0.17012533    -0.16127353     0.26679525
Ti      1.90719021     2.85112124     3.63916983    -0.20395952    -0.15232198    -0.24450943
Ti      1.89640722    -0.96664676     3.66687782     0.09720676     0.16005792    -0.66007030
O       3.75857799     4.76410102     0.76012999     0.20966866    -0.15434055     0.38546070
O       3.77900101     0.93627601     0.73866498     0.06694281    -0.08952533     0.67575095
O       0.00717998     4.76251100     0.79245098    -0.00555333    -0.44078109    -0.16563695
O      -0.01324700     0.95869100     0.81365098     0.15158561    -0.11254340    -0.47920418
O       5.70963721     4.72630523     4.00353382     0.04896411     0.55592490     0.50356231
O       5.71211524     0.92206622     4.01937480    -0.09969379     0.28738825     0.51500192
O       1.88699220     4.73321623     4.05100483    -0.01726831     0.15063945    -0.00236799
O       1.87488320     0.94184322     4.10129583     0.18707456     0.19093431    -0.43777007
O       3.81806323     2.89314723     3.21647681    -0.29389880    -0.32967005     0.05720732
O       3.81581322    -0.96987379     3.23195979    -0.45533765     0.01816871    -0.44310305
O      -0.04267677     2.79258625     3.22718079     1.07280682     0.18310298    -0.33548024
O      -0.00986275    -0.96172277     3.18782784     0.25783572    -0.03373160     0.35929714
O       5.72418599     6.65209602     1.60775003    -0.87817964    -0.02096941     0.08317085
O       5.73229002     2.86628000     1.61062901    -0.57797443     0.01507953    -0.07778001
O       1.86346800     6.66214499     1.61969800     0.96927180     0.00315809     0.17011016
O       1.94406302     2.88290400     1.65697002    -0.71430209    -0.14040517    -0.08636082
