# total energy = -19074.35605180 eV

CRYSTAL
PRIMVEC
        5.93400000     0.00000000     0.00000000
        0.00000000     9.29699974     0.00000000
        0.00000000     0.00000000     4.64899994
PRIMCOORD
22 1
Ti      4.39615101     6.98949102     2.32244301    -0.01780027    -1.24137586    -0.50373972
Ti      4.44683100     2.29232801     2.35093402    -1.01972483    -0.44741608    -0.93501338
Ti      1.51665100     7.12036602     2.43427202     0.06092128    -0.25237572     0.87384038
Ti      1.54856801     2.46390701     2.02004499    -0.44612667    -0.50699165     0.82222290
Ti      2.94606501     4.64985203     4.58244299     0.91889410     0.46456612    -0.09302280
Ti      3.02063201     0.04356902     4.60016101     0.15509569     0.51110002     0.07922009
Ti      5.82109300     4.52077897     4.48448800    -0.53777291     0.58050697    -0.08191666
Ti      0.00024898     9.08307100     0.14279202    -0.12598590     0.16718862     1.15352663
O       4.68024199     5.54360499     1.01696998    -0.77938599     0.36887194    -0.51271056
O       4.55273202     0.92162399     1.01104002    -0.26115476    -0.27893780    -0.93762048
O       1.31354700     0.90978402     0.93654499     0.71096017     0.81082725    -0.52773943
O       4.48522800     8.22387702     3.90296702    -0.16737219     1.20399612     0.15747678
O       4.29585001     3.69968998     3.60081200     0.87139475     0.56235806     1.06522515
O       1.47987000     8.20973597     3.96200299     0.29045892     0.83885100     0.00236002
O       1.58921501     3.76776800     3.73000401    -0.80574058     0.05574257    -0.32976699
O       3.04096898     6.16077500     3.40302300    -0.66978959    -0.34378876    -0.48648067
O       2.77972999     1.26201302     3.15561899     0.54326787     0.85405162     0.20292079
O       0.07321601     6.09636000     3.31671801     0.28372391    -0.99177307    -0.17065626
O       2.96140898     8.21115697     1.52460199    -0.20183219    -2.39748980     1.22499484
O       3.02428698     3.22218700     1.29887397     0.58539310     0.23293895     0.20727676
O       0.00865300     7.95711998     1.72268500     0.16181424     0.74964346    -1.66790198
O       5.87626301     3.29329498     1.36832198     0.45076135    -0.94049343     0.45750509
