# total energy = -19892.54252677 eV

CRYSTAL
PRIMVEC
        8.30708277     0.00000000     0.00000000
        0.00002583     2.94708272     0.00000000
        0.00000000     0.00000000    13.21586803
PRIMCOORD
24 1
Ti      3.01093307     1.74643839     4.90299289    -0.13301839     0.32491428     1.71782742
Ti      5.29617519     1.20064405     8.31287554     0.13301839    -0.32491428    -1.71782742
Ti      7.16433275     1.20064500     1.70488852    -0.13117413    -0.32504695    -1.71846994
Ti      1.14277556     1.74643756    11.51098002     0.13117413     0.32504695     1.71846994
Ti      3.01092049     0.27289709     1.70494152    -0.13321996     0.32339708    -1.71846223
Ti      5.29618782     2.67418546    11.51092703     0.13321996    -0.32339708     1.71846223
Ti      1.14276293     0.27289608     8.31282254     0.13108723     0.32364210    -1.71810587
Ti      7.16434538     2.67418647     4.90304589    -0.13108723    -0.32364210     1.71810587
O       2.62925311     1.03771784     6.74395646     3.65872435     0.07876397    -0.51852588
O       5.67785520     1.90936466     6.47191198    -3.65872435    -0.07876397     0.51852588
O       1.52435478     1.03772980     0.13606479    -3.66044210     0.07793402    -0.51628233
O       6.78275359     1.90935270    13.07980324     3.66044210    -0.07793402     0.51628233
O       5.67784257     0.43582324     0.13602187    -3.65821167    -0.07770442    -0.51723364
O       2.62926574     2.51125920    13.07984616     3.65821167     0.07770442     0.51723364
O       6.78274096     0.43581134     6.74399932     3.65903031    -0.07734241    -0.51689426
O       1.52436724     2.51127116     6.47186911    -3.65903031     0.07734241     0.51689426
O       0.30183104     1.79258277     3.56993573    -0.63253918     0.31735267     2.52727065
O       8.00527728     1.15449967     9.64593265     0.63253918    -0.31735267    -2.52727065
O       4.45538341     1.15447235     3.03804047    -0.63421734    -0.31767894    -2.52783295
O       3.85172491     1.79261014    10.17782773     0.63421734     0.31767894     2.52783295
O       0.30181841     0.31904141     3.03799829    -0.63166012     0.31907608    -2.52641421
O       8.00528991     2.62804109    10.17786991     0.63166012    -0.31907608     2.52641421
O       3.85171233     0.31906872     9.64597477     0.63442791     0.31836774    -2.52888581
O       4.45539598     2.62801371     3.56989354    -0.63442791    -0.31836774     2.52888581
