# total energy = -4986.54274329 eV

CRYSTAL
PRIMVEC
        4.46109274     0.00000000     0.00000000
       -0.00000765     3.29732961     0.00000000
       -2.23057368    -1.64870793     5.06469213
PRIMCOORD
6 1
Ti     -0.00019265     2.47311862     1.26617274    -0.00510416    -0.00523323     7.52122027
Ti      2.23070386    -0.82449695     3.79851864     0.00510416     0.00523323    -7.52122027
O       0.00004653     0.82432460     0.82499682     0.00189053     0.00481311    -2.35079854
O       2.23046451     0.82429702     4.23969455    -0.00189053    -0.00481311     2.35079854
O      -0.00001997    -0.82432143     3.35734272    -0.00208285    -0.00025917    -1.31130989
O       2.23053095     2.47294294     1.70734870     0.00208285     0.00025917     1.31130989
