# total energy = -4978.45116826 eV

CRYSTAL
PRIMVEC
        2.81290925     0.00000000     0.00000000
        1.88776518     3.98265997     0.00000000
       -0.00001233    -0.00005922     4.52920019
PRIMCOORD
6 1
Ti      2.35033095     1.99130040     2.26460000     0.00000000     0.00000000     0.00000000
Ti      0.00000000     0.00000000     0.00000000     0.00000000     0.00000000     0.00000000
O       1.77434978     0.77615028     0.88267438    -9.65086324     4.01623381     5.57481861
O       2.92631207     3.20645052     3.64652562     9.65086324    -4.01623381    -5.57481861
O       0.57597601     1.21512622     3.14727532     9.65141423    -4.01777056     5.57670554
O       1.31177672     2.76747446     1.38192468    -9.65141423     4.01777056    -5.57670554
