# total energy = -4989.11328918 eV

CRYSTAL
PRIMVEC
        2.87101506     0.00000000     0.00000000
        0.67099365     4.44812562     0.00000000
       -0.00000421    -0.00005839     4.51122692
PRIMCOORD
6 1
Ti      1.77100199     2.22403353     2.25561341     0.00000000     0.00000000     0.00000000
Ti      0.00000000     0.00000000     0.00000000     0.00000000     0.00000000     0.00000000
O       1.56627336     0.86686274     0.87917165    -1.56179740     0.77127467     0.79232147
O       1.97573061     3.58120433     3.63205512     1.56179740    -0.77127467    -0.79232147
O       0.20472679     1.35714714     3.13478602     1.56182388    -0.77153615     0.79263335
O       0.46626222     3.09092002     1.37644075    -1.56182388     0.77153615    -0.79263335
