# total energy = -19902.88792596 eV

CRYSTAL
PRIMVEC
        7.34439253     0.00000000     0.00000000
        0.00003415     6.39544494     0.00000000
        0.00000000     0.00000000    12.07056752
PRIMCOORD
24 1
Ti      2.66200927     3.78993462     4.47809461     0.39902559    -0.94126990     1.01865345
Ti      4.68241748     2.60551005     7.59247338    -0.39902559     0.94126990    -1.01865345
Ti      6.33407829     2.60551211     1.55714116     0.39908035     0.94130538    -1.01920007
Ti      1.01034846     3.78993275    10.51342697    -0.39908035    -0.94130538     1.01920007
Ti      2.66199247     0.59221228     1.55718956     0.39902559    -0.94126990    -1.01865345
Ti      4.68243428     5.80323258    10.51337857    -0.39902559     0.94126990     1.01865345
Ti      1.01033166     0.59220994     7.59242498    -0.39908035    -0.94130538    -1.01920007
Ti      6.33409509     5.80323485     4.47814301     0.39908035     0.94130538     1.01920007
O       2.32455865     2.25194479     6.15951840     0.91950834     1.44173789    -0.91110108
O       5.01986810     4.14349988     5.91104960    -0.91950834    -1.44173789     0.91110108
O       1.34770458     2.25197063     0.12427327    -0.91941809     1.44237732    -0.91220614
O       5.99672224     4.14347410    11.94629438     0.91941809    -1.44237732     0.91220614
O       5.01985130     0.94577734     0.12423409    -0.91950834    -1.44173789    -0.91110108
O       2.32457545     5.44966732    11.94633356     0.91950834     1.44173789     0.91110108
O       5.99670536     0.94575156     6.15955758     0.91941809    -1.44237732    -0.91220614
O       1.34772125     5.44969317     5.91101042    -0.91941809     1.44237732     0.91220614
O       0.26685941     3.89007218     3.26056154    -0.82798166     0.08633305    -0.01348133
O       7.07756734     2.50537249     8.81000645     0.82798166    -0.08633305     0.01348133
O       3.93906302     2.50531305     2.77476086    -0.82777134    -0.08614356     0.01332012
O       3.40536373     3.89013162     9.29580693     0.82777134     0.08614356    -0.01332012
O       0.26684254     0.69234964     2.77472229    -0.82798166     0.08633305     0.01348133
O       7.07758421     5.70309502     9.29584550     0.82798166    -0.08633305    -0.01348133
O       3.40534686     0.69240908     8.81004496     0.82777134     0.08614356     0.01332012
O       3.93907989     5.70303558     3.26052297    -0.82777134    -0.08614356    -0.01332012
