# total energy = -4990.08613999 eV

CRYSTAL
PRIMVEC
        3.78389456     0.00000000     0.00000000
        0.74927818     3.70896754     0.00000000
       -2.26662084    -1.85451197     4.85366274
PRIMCOORD
6 1
Ti      0.56182820     2.78186749     1.21341582     0.00021443    -0.00021443     0.00000000
Ti      1.70472370    -0.92741192     3.64024708    -0.00021443     0.00021443     0.00000000
O       0.18735919     0.92723646     0.79062206    -0.00021649     0.00000977    -0.30017949
O       2.07919259     0.92721901     4.06304089     0.00021649    -0.00000977     0.30017949
O      -0.18733436    -0.92721614     3.21745332     0.00000977    -0.00021649    -0.30017949
O       2.45388603     2.78167152     1.63620957    -0.00000977     0.00021649     0.30017949
