# total energy = -19948.67351246 eV

CRYSTAL
PRIMVEC
        5.69571889     0.00000000     0.00000000
        1.20041926     5.94192229     0.00000000
        0.00000000     0.00000000    10.24594685
PRIMCOORD
24 1
Ti      2.77579140     3.52117765     3.80117333     0.23956057    -1.75782120     0.87529537
Ti      4.12034648     2.42074479     6.44477392    -0.23956057     1.75782120    -0.87529537
Ti      5.40124175     2.42074692     1.32175936    -0.53962770    -0.35605910     0.03752655
Ti      1.49489615     3.52117575     8.92418801     0.53962770     0.35605910    -0.03752655
Ti      2.17558191     0.55021672     1.32180044     0.23956057    -1.75782120    -0.87529537
Ti      4.72055599     5.39170589     8.92414693    -0.23956057     1.75782120     0.87529537
Ti      0.89468656     0.55021443     6.44473284     0.53962770     0.35605910     0.03752655
Ti      6.00145133     5.39170819     3.80121442    -0.53962770    -0.35605910    -0.03752655
O       2.22541892     2.09225188     5.22842841     1.40934172     1.65142249    -0.55345793
O       4.67071896     3.84967056     5.01751885    -1.40934172    -1.65142249     0.55345793
O       1.46785458     2.09227581     0.10548778    -0.57182127     0.11108661     0.72163925
O       5.42828336     3.84964668    10.14045918     0.57182127    -0.11108661    -0.72163925
O       4.07050945     0.87870946     0.10545452    -1.40934172    -1.65142249    -0.55345793
O       2.82562843     5.06321298    10.14049244     1.40934172     1.65142249     0.55345793
O       4.82807385     0.87868558     5.22846167     0.57182127    -0.11108661     0.72163925
O       2.06806398     5.06323692     5.01748559    -0.57182127     0.11108661    -0.72163925
O       0.93710162     3.61421390     2.76768596     0.28272452     0.92022002     0.99893694
O       5.95903626     2.32770854     7.47826129    -0.28272452    -0.92022002    -0.99893694
O       3.52505428     2.32765304     2.35532026     0.77699512     0.99647022     0.22914734
O       3.37108360     3.61426940     7.89062682    -0.77699512    -0.99647022    -0.22914734
O       0.33689211     0.64325280     2.35528752     0.28272452     0.92022002    -0.99893694
O       6.55924577     5.29866970     7.89065956    -0.28272452    -0.92022002     0.99893694
O       2.77087408     0.64330824     7.47829397    -0.77699512    -0.99647022     0.22914734
O       4.12526379     5.29861420     2.76765322     0.77699512     0.99647022    -0.22914734
