# total energy = -19959.53645607 eV

CRYSTAL
PRIMVEC
        7.60600008     0.00000000     0.00000000
        0.00000000     7.60600008     0.00000000
       -1.89786986    -1.89786986     4.85670466
PRIMCOORD
24 1
Ti      3.79836101     6.73111499     1.16218299    -0.20295396    -0.51418380    -0.15064999
Ti      3.66369598     2.86218899     1.13096101     1.07334675     0.61687036     2.29524624
Ti      0.05617402     6.65680400     1.21076400     0.08612453     0.33560751     0.43664418
Ti     -0.03816400     2.74747399     1.30714602    -0.86196883     0.44848232    -0.58854270
Ti      5.74355123     2.74958123     3.75533684    -0.83459454    -0.64619020    -1.12903044
Ti      5.77160524    -1.03548976     3.56371683     0.05498229     0.95797874    -0.01060683
Ti      1.84202621     2.72741722     3.59765382     1.67800565     1.96380649     1.25000629
Ti      1.97738425    -0.87161378     3.68557683    -0.08982332    -2.04981430    -1.05138901
O       3.90455201     4.86324000     0.69187401    -0.34794186    -1.46538614     0.69124417
O       3.70436500     1.02945200     0.83761599     0.51700070    -0.32839942    -0.39258266
O       0.15208300     4.68254502     0.87839000    -1.11794255     1.22555277    -0.13212981
O      -0.09636699     0.94547300     0.69507400     0.49927088     0.46379993     0.02526264
O       5.84072622     4.73377721     3.89641782     0.11917582     0.23016241     1.07514447
O       5.89760721     0.97854420     3.89859480    -1.13726954    -1.12928112     1.80868536
O       1.68806421     4.80209923     4.10489180     0.29890962     0.76014899    -0.29610352
O       1.71946220     0.88245625     4.02233179     0.51877836     2.02096780     1.28952107
O       3.61119821     2.58027023     3.17377580     1.25480422     0.52905224     0.47290575
O       3.84079325    -0.86829880     3.37246482    -0.03135179    -0.34052371    -0.75944245
O       0.02445323     2.61106924     3.19605982    -0.80689835     0.65755602    -0.48333646
O       0.08169825    -0.56840077     3.06842783    -1.30253214    -2.11972210     0.41446841
O       5.74120200     6.74234000     1.63102700    -0.49160976    -0.47292452    -0.61756841
O       5.58870603     2.78018699     1.87212301     0.89037053     0.75842506    -2.41444263
O       1.93404701    -0.63715402     1.71754002     0.78648738    -1.29499007    -0.91184259
O       1.87576401     3.08420800     1.65239401    -0.55237009    -0.60699526    -0.82146108
