# total energy = -19073.58116675 eV

CRYSTAL
PRIMVEC
        5.93400000     0.00000000     0.00000000
        0.00000000     9.29699974     0.00000000
        0.00000000     0.00000000     4.64899994
PRIMCOORD
22 1
Ti      4.51168199     6.75690100     2.43841199    -1.70632816    -0.20497022    -0.52261111
Ti      4.32320700     2.46241902     2.19156901     1.56957807    -0.92482281    -0.04372291
Ti      1.60072297     7.26469600     2.50853200     1.46311379    -1.05562387    -1.06679635
Ti      1.55774299     2.41010598     2.17477700    -0.84573719    -0.33298292     0.08853468
Ti      2.96458600     4.55981998     4.58721702     0.53146213     1.07412477     0.53238696
Ti      2.96224000     0.06191300     0.05155398     1.15351121     0.89751563     0.41244881
Ti      5.81837297     4.65842200     4.32082797     0.10398368    -0.58096720     2.02260919
Ti      5.89056000     8.90533100     0.20031100    -1.04458021     1.57082172    -0.17848116
O       4.49306601     5.40624597     0.92465602    -0.60711764     0.68338996     0.78478531
O       4.52995501     0.80456099     0.93901799     0.74779406     0.63770915     0.19493957
O       1.52604702     0.62951598     1.18196501    -1.01286898     1.22067719    -0.51390278
O       4.42647398     8.34956598     3.83479899     0.10835841     0.59846331    -0.27788185
O       4.29224600     4.15600799     3.31527499     0.48158220    -1.52898728    -0.66335669
O       1.48610800     8.53291600     3.69633299    -0.35490904     1.87392892     1.27671954
O       1.51019001     3.73837702     3.65171298    -0.73584666    -0.08421497    -0.69993964
O       2.91766698     6.30034698     3.48998799    -0.72167267    -1.06748463    -0.36115400
O       3.01898701     1.46625401     3.24498300     0.16531840     0.32693183     0.36478285
O       0.00540502     6.43575598     3.65063599     1.25839246    -1.56509535    -0.50640827
O       3.09130300     7.90813902     1.51090699    -0.38101552    -1.24137689     0.12780136
O       2.99430100     2.93405501     1.07994800    -0.96403446     1.70551312    -1.00293861
O       5.92342000     7.78380602     1.56916602    -0.08722316    -1.07156806    -0.03177628
O       5.88341399     3.28402702     1.30842901     0.87823980    -0.93098086     0.06396110
