# total energy = -19067.87330335 eV

CRYSTAL
PRIMVEC
        7.60600008     0.00000000     0.00000000
        0.00000000     7.60600008     0.00000000
       -1.89786986    -1.89786986     4.85670466
PRIMCOORD
22 1
Ti      3.83914999     6.72748102     1.16498499     0.85632268     0.33137315    -0.53528639
Ti      3.76630398     2.95073399     1.21701301     1.79923706    -4.02167452    -1.06617491
Ti     -0.21158200     6.73293499     1.31697199     2.80777939     0.55694640    -3.18892449
Ti      0.19760299     2.63751303     1.04019102    -2.04538994     2.36888395     1.90394014
Ti      5.80340424     2.91594223     3.74616683    -0.57254401    -0.20712172     0.29260939
Ti     -1.18826577    -0.35044578     3.59477980    -3.10144730    -0.86538942     2.27366131
Ti      1.91557323     2.88379323     3.69138180    -1.75793150    -4.25752061     1.79254962
Ti      1.34023521    -0.99378276     3.69207084     2.74815266     1.58152188     1.75629885
O       3.78696698     4.67884501     0.98699500    -0.21275552     3.03641277    -1.19530887
O       4.11739599     1.00900698     0.44686198     0.24764489    -3.34388931     3.31204027
O       0.65493501     4.62422402     0.66733400     0.15566364    -0.62623432     1.05479495
O       7.03267601     1.05490098     0.72149900     0.57046038    -3.39449944     0.86969216
O       5.07254823     4.48377721     4.51366180    -0.56090925    -0.58095897    -3.33103610
O       5.14336321     0.93608524     4.06010880     1.94789085     2.07807562    -0.65044203
O       1.91080222     4.59694023     4.01121182    -0.44086645     3.71200483     1.80148652
O       1.91045920     0.91300422     4.00385980    -1.87073201     0.42594351     0.72835266
O       3.42994421     2.33885121     3.03007084     0.69552069     1.96924309    -1.86763306
O       0.12597922     2.93648224     3.00978679    -0.00422638    -0.44164575    -0.15099143
O       5.81228802     6.34727500     2.04119498    -2.63923837     0.29603230     0.71718841
O       5.51517298     2.88482100     1.90080902     0.11061893     0.62270625    -1.15976439
O       2.26757299     6.62200599     2.16938198     0.61576041     0.39241682    -2.47455813
O       1.77891299     1.92742399     0.56726902     0.65098968     0.36737350    -0.88249472
