# total energy = -19072.54866434 eV

CRYSTAL
PRIMVEC
        5.17600016     0.00000000     0.00000000
        0.00000000     5.50899976     0.00000000
        0.00000000     0.00000000     9.26300011
PRIMCOORD
22 1
Ti      1.77013097     3.28484100     3.31558498     0.92785543     2.68712596     0.10567984
Ti      3.71660402     2.19328899     5.99285399    -1.15854131    -0.70646948    -0.82825265
Ti      4.40347202     2.26816302     1.36337798    -0.75205104    -1.42831313    -2.11021545
Ti      0.89926001     3.24239501     8.10736002    -0.44410990     0.47562572    -0.18480814
Ti      1.76255099     0.60893601     1.27864803     0.99456246    -1.67985633    -1.01929520
Ti      3.36633298     5.19600200     7.96890000    -0.36259433     1.57284466     0.29390445
Ti      0.70540201     0.09631100     6.02935298     1.43922592    -0.15234692     0.33538048
Ti      4.41686100     4.85785398     3.48631799    -0.36473426     0.39813213    -0.09599294
O       3.43653501     3.39781902     4.31326000     0.80853820    -0.71441059     1.71124231
O       1.03977202     1.97012002     0.29206901    -1.89048632     1.10801140    -2.13384209
O       4.37092201     3.78632598     8.66769099    -0.24484187    -0.75403130     0.44463106
O       3.46678601     0.99685701     0.07205198    -0.19074559     0.05788352     0.91900491
O       1.72867899     4.78150498     8.94416499    -0.57548021    -0.44342136     0.33368252
O       4.38619798     0.75083298     5.00970399    -0.73736386     0.39607473    -2.52974868
O       1.09761601     4.87063202     4.29408097    -1.12771558    -0.49782489    -1.15968057
O       0.14670598     3.58836998     2.25351899     0.28047969     0.62970094     0.78490281
O       4.77166799     0.99193000     7.26032298     0.27490245     1.15601186     0.69844095
O       2.50048702     2.19769497     2.07691900     2.10328838    -1.40224367     0.47310475
O       1.68980600     4.09404398     6.50092902     1.45086351    -2.17769742     2.04783943
O       0.00780002     0.85620800     2.26312901     0.34265927    -0.41512044     0.43482487
O       2.27753502     1.11598301     6.63692101    -0.30520317     0.96245400     0.27645668
O       2.84984598     4.67565698     2.20010300    -0.46850839     0.92787034     1.20274065
