# total energy = -19961.71968706 eV

CRYSTAL
PRIMVEC
        7.60600008     0.00000000     0.00000000
        0.00000000     7.60600008     0.00000000
       -1.89786986    -1.89786986     4.85670466
PRIMCOORD
24 1
Ti      3.86885202     6.65111799     1.18866001    -0.90729970    -0.57720902     0.22946821
Ti      3.82190299     2.77790798     1.18371199    -0.29197535     0.86972739     0.58921916
Ti     -0.03393698     6.62789198     1.20446399     0.82257642     1.18864329    -0.29689799
Ti     -0.04152401     2.89959801     1.26082999     0.43657476    -1.00123679    -0.05725875
Ti      5.68428623     2.83890921     3.68590783     0.45360036     0.24667533    -0.47197655
Ti      5.70241225    -0.92802179     3.62937582    -0.00641156    -0.21317564     1.08271765
Ti      1.95675322     2.83394521     3.66915482    -0.58794106    -0.19070136    -1.09435113
Ti      1.92981021    -0.96347879     3.66012181    -0.09644623     0.17511430    -1.89519915
O       3.85119301     4.72595502     0.69257501    -0.01100535    -0.36546857     1.87945551
O       3.82114098     0.93575302     0.69673599     0.03161018    -0.36511118     0.79941695
O      -0.15825898     4.77150702     0.80926399     0.48328993    -0.12336492    -0.03041205
O      -0.05006303     0.96965900     0.77409302     0.25508850    -0.03457827    -0.17660169
O       5.53303123     4.78599520     4.00525381     0.27179784    -0.15927244     0.44727159
O       5.63510423     0.98086422     4.05017281     0.55298510    -0.04048795     0.57483537
O       1.98153221     4.66687624     4.07454883     0.15016251     1.85556455    -0.65217136
O       1.85835022     0.90389623     4.08681283    -0.07763423    -0.04129322    -0.65391765
O       3.82413221     2.77245121     3.11657581    -0.73031750     0.02568507     0.69194557
O       3.87697225    -0.72144079     3.15041781    -1.50331198    -0.79938455     0.14478967
O      -0.05250576     2.92709422     3.30784280     0.45257860    -0.12128618    -0.29438499
O      -0.03593278    -1.03036875     3.18465881     0.88386718     0.12761495     0.17263241
O       5.70957201     6.68121902     1.56116899    -0.21268996     0.01117890     0.25528313
O       5.73206702     2.78712699     1.68075400    -0.92403734     0.09320767    -0.57504929
O       1.91603901     6.73064698     1.61126699    -0.00989438    -0.56091927     0.18088283
O       1.84481101     2.85077902     1.70075499     0.56483275     0.00007868    -0.84969720
