# total energy = -19517.36028363 eV

CRYSTAL
PRIMVEC
        7.60600008     0.00000000     0.00000000
        0.00000000     7.60600008     0.00000000
       -1.89786986    -1.89786986     4.85670466
PRIMCOORD
23 1
Ti      3.83722802     6.50504697     1.24792601    -0.85564622     0.78169176     0.91828243
Ti      3.86664800     2.82412400     1.15617302    -0.10771538    -0.24766495    -0.64965887
Ti     -0.00100702     6.59103097     1.39236599     0.49151052     1.62190338    -1.14199446
Ti      0.06262299     2.84903501     0.97872999    -0.81349580    -0.63670462     1.06596922
Ti      5.49263321     2.93589724     3.65922084     0.19780095    -0.06453189    -0.72058510
Ti      5.74968423    -0.99801078     3.62703183    -2.11428653    -0.67515754     1.30418151
Ti      1.88968725     2.99694821     3.54673283    -1.27083429    -1.99431933     0.94083899
Ti      1.95885024    -0.99367475     3.76654079     0.82769832     1.64943168    -0.87238771
O       3.65799600     4.68250099     0.70796000    -0.20596704     0.95744935     0.34062090
O       4.12182097     0.86343799     0.73662299    -0.27858813    -0.00512035     1.51870775
O       0.13168301     4.88597102     0.81221098     0.28377148    -1.91269269     0.09361750
O      -0.14959301     0.90226102     0.72801899     0.36419458    -0.28659609     0.62931887
O       5.73404323     4.66464825     3.99418882     0.58395020     1.59138746     0.06378858
O       5.65751521     0.99010021     4.03850583     0.35188799     0.63061136    -1.35544649
O       1.52335324     4.72378222     4.18069480     0.04525040    -0.00231117    -1.48115986
O       1.99185323     0.92815922     4.10160783    -0.74248267     0.40382610    -0.66020709
O       3.63981824     3.05861122     3.41558282     1.84902572    -0.15782620    -1.61732888
O       3.88410524    -0.81825779     3.34265182    -0.82119343    -1.02992106    -0.71793840
O      -0.08009775    -0.76917877     3.28198784     1.95209486    -0.26806666    -0.34695944
O       5.65155202     6.31097497     1.68083898     1.14508955     0.46959674    -0.36936507
O       5.69522401     3.02094999     1.46262602     1.10878531    -0.27478829     1.82937297
O       2.02524399     6.81414898     1.82831798    -1.43637791    -0.72692338    -0.81381050
O       1.90243502     2.71340202     1.29836797    -0.55447197     0.17672638     2.04214315
