# total energy = -19942.07043562 eV

CRYSTAL
PRIMVEC
        5.77985421     0.00000000     0.00000000
        2.08908045     5.78591889     0.00000000
        0.00000000     0.00000000    10.51172660
PRIMCOORD
24 1
Ti      3.33290638     3.42873009     3.89977561     0.55499391    -2.63720669     0.94554745
Ti      4.53602849     2.35718865     6.61195110    -0.55499391     2.63720669    -0.94554745
Ti      5.83584513     2.35719062     1.35604578    -1.51033315    -0.74549061     0.45589147
Ti      2.03308977     3.42872829     9.15568105     1.51033315     0.74549061    -0.45589147
Ti      2.28836630     0.53577079     1.35608792     0.55499391    -2.63720669    -0.94554745
Ti      5.58056859     5.25014806     9.15563891    -0.55499391     2.63720669     0.94554745
Ti      0.98854957     0.53576866     6.61190896     1.51033315     0.74549061     0.45589147
Ti      6.88038533     5.25015024     3.89981776    -1.51033315    -0.74549061    -0.45589147
O       2.56496114     2.03732033     5.36405362     1.56027813     2.00495830    -0.88597111
O       5.30397373     3.74859840     5.14767309    -1.56027813    -2.00495830     0.88597111
O       1.79620976     2.03734367     0.10822415    -0.09449296    -0.58331822     1.17577054
O       6.07272518     3.74857511    10.40350228     0.09449296     0.58331822    -1.17577054
O       4.25943363     0.85563899     0.10819003    -1.56027813    -2.00495830    -0.88597111
O       3.60950124     4.93027974    10.40353639     1.56027813     2.00495830     0.88597111
O       5.02818507     0.85561565     5.36408774     0.09449296     0.58331822     1.17577054
O       2.84074975     4.93030310     5.14763898    -0.09449296    -0.58331822    -1.17577054
O       1.48069259     3.51932376     2.83947960     0.47867711     1.80540334     1.70904350
O       6.38824228     2.26659497     7.67224711    -0.47867711    -1.80540334    -1.70904350
O       3.91829798     2.26654108     2.41641717     1.09166458     1.35479780     0.54730271
O       3.95063689     3.51937766     8.09530937    -1.09166458    -1.35479780    -0.54730271
O       0.43615249     0.62636435     2.41638358     0.47867711     1.80540334    -1.70904350
O       7.43278239     5.15955438     8.09534296    -0.47867711    -1.80540334     1.70904350
O       2.90609679     0.62641825     7.67228058    -1.09166458    -1.35479780     0.54730271
O       4.96283808     5.15950048     2.83944607     1.09166458     1.35479780    -0.54730271
