# total energy = -19961.03857765 eV

CRYSTAL
PRIMVEC
        7.60600008     0.00000000     0.00000000
        0.00000000     7.60600008     0.00000000
       -1.89786986    -1.89786986     4.85670466
PRIMCOORD
24 1
Ti      3.67776998     6.74328501     1.30197802     2.82589668    -1.04945168    -1.10733340
Ti      3.82886300     2.89758999     1.19957598     0.13695372     1.46024110    -0.40792521
Ti      0.10677998     6.52982199     1.15522902    -2.21488664     0.94223381     0.45794193
Ti      0.01140398     2.79528601     1.15616402     0.29580270    -0.83251966     0.88463337
Ti      5.71724424     2.73206224     3.58718283     0.14895306     0.10641671    -0.19669075
Ti      5.64513421    -1.06748778     3.58326580     0.92284049    -0.09778397     0.08575224
Ti      1.92974925     2.99040122     3.58732682    -0.09067796    -0.67905277     0.78941561
Ti      1.84699720    -0.88062577     3.65893884    -0.76570103     0.58669228     1.18398316
O       3.68793601     4.85831902     0.85446002     0.33164158    -0.00897341    -0.44161207
O       3.74319502     1.10666198     0.99036898     0.19111660    -2.63903037    -1.15786871
O       0.10215402     4.64516801     0.78598401     0.38872009     0.76869045    -0.01672246
O       0.07406301     0.81282800     0.76739602     0.11372945     0.09922045    -0.29023909
O       5.70752124     4.59873821     4.01204183     0.46874416     1.25170527     0.41007182
O       5.56242724     0.87345923     4.14011982     0.34885126     0.07927820    -1.45579540
O       1.76717425     4.80100521     4.08454980     0.17044903     1.21172640     0.39602460
O       1.91203324     0.96516723     4.03629180     0.14593150     0.60191193     0.73731373
O       3.84580625     3.00707724     3.37692679    -0.03495802    -0.56605300    -1.01049945
O       3.77063022    -0.86911976     3.28277584     0.33367609    -0.49145601    -0.22026957
O       0.05719824     2.81709324     3.15028980    -0.67486238    -0.21568812     0.33100086
O      -0.04431277    -0.80632875     3.20422683     0.88092635    -0.56717014     0.15161904
O       5.76622901     6.49089302     1.64255100    -0.70022298     0.31846056     0.04487322
O       5.75086202     2.77804800     1.53982801    -0.24529002     0.12370636     1.05289490
O       1.94716500     6.74596502     1.75121400    -1.80517734    -0.37834723    -0.58811127
O       2.00993198     2.90567503     1.63951802    -1.17245613    -0.02475716     0.36754268
