# total energy = -19913.39629270 eV

CRYSTAL
PRIMVEC
        7.82832598     0.00000000     0.00000000
        0.00002954     4.99902350     0.00000000
        0.00000000     0.00000000    11.95603788
PRIMCOORD
24 1
Ti      2.83740893     2.96241667     4.43560480     0.53332618    -0.46228478     2.01681829
Ti      4.99094608     2.03660676     7.52043321    -0.53332618     0.46228478    -2.01681829
Ti      6.75143723     2.03660844     1.54236644     0.53352004     0.46209811    -2.01746518
Ti      1.07691784     2.96241518    10.41367163    -0.53352004    -0.46209811     2.01746518
Ti      2.83739441     0.46290499     1.54241440     0.53378950    -0.46680272    -2.01718519
Ti      4.99096060     4.53611857    10.41362374    -0.53378950     0.46680272     2.01718519
Ti      1.07690326     0.46290318     7.52038525    -0.53404712    -0.46662711    -2.01787656
Ti      6.75145175     4.53612038     4.43565269     0.53404712     0.46662711     2.01787656
O       2.47772486     1.76024110     6.10107464     0.81768001     1.38404591    -1.79595453
O       5.35063022     3.23878226     5.85496337    -0.81768001    -1.38404591     1.79595453
O       1.43650443     1.76026129     0.12309412    -0.81646671     1.38407162    -1.79620419
O       6.39185070     3.23876214    11.83294351     0.81646671    -1.38407162     1.79620419
O       5.35061570     0.73927045     0.12305531    -0.81748435    -1.38469692    -1.79676700
O       2.47773937     4.25975292    11.83298231     0.81748435     1.38469692     1.79676700
O       6.39183613     0.73925033     6.10111338     0.81620574    -1.38386028    -1.79593217
O       1.43651882     4.25977310     5.85492457    -0.81620574     1.38386028     1.79593217
O       0.28443905     3.04068947     3.22962411    -2.15943666     0.71641245     0.33126568
O       7.54391603     1.95833389     8.72641384     2.15943666    -0.71641245    -0.33126568
O       4.19861105     1.95828742     2.74843286    -2.16133697    -0.71632195    -0.33209152
O       3.62974396     3.04073601     9.20760489     2.16133697     0.71632195     0.33209152
O       0.28442447     0.54117766     2.74839470    -2.15965675     0.71653998    -0.33192928
O       7.54393054     4.45784571     9.20764305     2.15965675    -0.71653998     0.33192928
O       3.62972944     0.54122420     8.72645193     2.16139045     0.71670813    -0.33160558
O       4.19862557     4.45779917     3.22958595    -2.16139045    -0.71670813     0.33160558
