# total energy = -19514.25786528 eV

CRYSTAL
PRIMVEC
        5.93400000     0.00000000     0.00000000
        0.00000000     9.29699974     0.00000000
        0.00000000     0.00000000     4.64899994
PRIMCOORD
23 1
Ti      4.71316703     7.08776701     2.16540802    -1.40780986    -0.82704372    -0.29294723
Ti      4.44645502     2.25190802     2.33684203     0.41502763    -0.10225075     1.10204027
Ti      1.43547600     6.86177700     2.44608802     0.27819449     0.35185174    -0.50607197
Ti      1.55264198     2.50942102     2.16919100    -2.15003182    -1.80158654     1.00937691
Ti      2.90000399     4.51849700     4.63086102     0.61243880     1.30286124     0.18836217
Ti      3.12157702     0.00316300     4.49407701    -1.78157383     0.77526605    -0.35651033
Ti      5.91279100     4.57820598     0.07973098    -0.10037436     0.69738679    -0.30953214
Ti      0.06676698     0.10440000     4.54052898     1.60673387     0.35453572     0.32375189
O       4.13844598     5.65618999     1.06207700     0.86545061    -0.35080813    -1.51971074
O       4.26805498     0.92388400     1.03786402     0.07715472    -1.68525205    -1.11738025
O       1.45694102     5.40379498     1.17938300    -0.55584777     0.17915273    -0.52319758
O       1.25860099     1.14636901     0.89812402     1.04071841    -1.23573486    -0.22941242
O       4.44833000     8.47617698     3.44432899     0.23525371     0.96835237     3.17353746
O       4.41173200     3.88491202     3.72366002    -1.01123813    -0.94209497    -0.26671400
O       1.50471800     8.38642598     3.75547098    -0.39773001     0.46578096     2.38514644
O       1.34954799     3.50695903     4.05479702    -0.02867552     1.25558018    -2.41654862
O       2.86456499     1.56650902     3.53019901     0.55782906    -0.27581854    -2.10784823
O       5.69074500     5.84135398     3.22421200     0.72770860     1.80862879     0.48555533
O       5.92108702     1.36452497     3.11030199    -0.28004775     0.02446457     1.24257245
O       2.85590802     7.73208201     1.92288799     1.77415800    -0.33448805    -2.26425467
O       2.95520501     3.31115000     1.26783900     1.18830133    -2.13449258     2.85056822
O       0.29522201     8.03375300     1.55411198    -1.72668436    -1.03563868    -1.20389996
O       5.77171102     3.00496900     1.31428600     0.06104444     2.54134744     0.35311750
