# total energy = -19959.94215703 eV

CRYSTAL
PRIMVEC
        7.60600008     0.00000000     0.00000000
        0.00000000     7.60600008     0.00000000
       -1.89786986    -1.89786986     4.85670466
PRIMCOORD
24 1
Ti      3.82851797     6.80021601     1.29298402     0.59679235    -0.76768335     0.18502025
Ti      3.79023099     2.96275198     1.16849698     1.16075786     0.43122455     0.39872168
Ti      0.08942000     6.48343098     1.30045399    -1.13882352     0.70007154    -1.38826381
Ti      0.07948502     2.81583200     1.21576298    -1.44711201    -1.03812700    -1.07434434
Ti      5.67452625     2.88142124     3.58790282    -0.39465857    -0.98771047    -0.95166513
Ti      5.65517021    -1.11472775     3.63524281    -1.97812960     1.60001275     0.02098124
Ti      1.94104321     3.00543123     3.60369882    -0.05041215     0.09152154     1.58281617
Ti      1.79181825    -0.90068677     3.66946481     2.83383085    -0.56274424     0.58619245
O       3.80521999     4.96302198     0.77968098    -0.76932603    -3.14596751    -0.95433985
O       4.04785200     1.00135698     0.90493998    -1.35224470     0.52657164    -1.48058290
O       0.21114299     4.63489398     0.66000500    -0.14212909     1.41198739     0.44991699
O      -0.00908899     0.89253199     0.80535703     0.43210516    -1.67003162     0.28116129
O       5.26104222     4.71454723     3.93860182     1.37829384    -0.69944676     1.64802760
O       5.54885522     0.83139122     4.01032179     0.98459069     0.99469899     0.30018515
O       2.12321523     4.84819824     4.00960179    -1.01219561     0.71700406     0.07366008
O       1.93936324     1.02268023     4.10886481    -0.99727755    -0.42017241    -0.43655779
O       3.76105920     2.92360625     3.16346981     0.13058201    -0.39189874     0.10538184
O       3.76755220    -0.83419676     3.17831879    -0.87290322     0.40053226     0.63696688
O      -0.04330379     3.15479421     3.15366781     0.16140106    -0.37506187     0.24626807
O      -0.05357978    -1.18068880     3.17965681     0.48418776     0.45358467     0.44022368
O       5.57002999     6.35030401     1.64904199     2.98895173     0.59395590     0.36674615
O       5.65836300     2.85856100     1.58279202     0.53751323     0.29346994     0.33482666
O       1.92869899     6.37018001     1.69653798    -1.80553601     1.38884899    -0.30809618
O       1.88548003     2.60102398     1.70663299     0.27174154     0.45535925    -1.06324591
