# total energy = -19955.15627179 eV

CRYSTAL
PRIMVEC
        4.89719729     0.00000000     0.00000000
        0.51993685     5.18610063     0.00000000
        0.00000000     0.00000000     8.77590834
PRIMCOORD
24 1
Ti      2.08311263     3.07327846     3.25579948     0.92967551    -0.00789509    -0.03501638
Ti      3.33402167     2.11282221     5.52010916    -0.92967551     0.00789509     0.03501638
Ti      4.43533939     2.11282397     1.13211979    -1.26377558    -0.71869302     1.13550474
Ti      0.98179492     3.07327695     7.64378901     1.26377558     0.71869302    -1.13550474
Ti      1.82314430     0.48022819     1.13215499     0.93016916    -0.00438450     0.02942063
Ti      3.59399000     4.70587268     7.64375380    -0.93016916     0.00438450    -0.02942063
Ti      0.72182652     0.48022628     5.52007401     1.26408360     0.72050359     1.14283958
Ti      4.69530773     4.70587455     3.25583469    -1.26408360    -0.72050359    -1.14283958
O       1.73307253     1.82611421     4.47827897    -1.08867979    -0.76671559    -0.36941830
O       3.68406177     3.35998652     4.29762968     1.08867979     0.76671559     0.36941830
O       1.08171415     1.82613518     0.09035290     1.16006701    -1.10984075     0.00537181
O       4.33542020     3.35996559     8.68555554    -1.16006701     1.10984075    -0.00537181
O       3.42409344     0.76693605     0.09032445     1.08884639     0.76727120    -0.36897118
O       1.99304086     4.41916468     8.68558400    -1.08884639    -0.76727120     0.36897118
O       4.07545187     0.76691512     4.47830747    -1.16066916     1.11075863     0.00563586
O       1.34168238     4.41918561     4.29760122     1.16066916    -1.11075863    -0.00563586
O       0.49418156     3.15448051     2.37059184    -0.65441105    -0.30160671    -0.87306982
O       4.92295269     2.03162022     6.40531680     0.65441105     0.30160671     0.87306982
O       2.83021190     2.03157192     2.01739038     0.09452716    -0.83282099    -0.48297060
O       2.58692239     3.15452875     6.75851816    -0.09452716     0.83282099     0.48297060
O       0.23421322     0.56143004     2.01736233    -0.65437325    -0.30144345     0.87155493
O       5.18292103     4.62467064     6.75854616     0.65437325     0.30144345    -0.87155493
O       2.32695406     0.56147833     6.40534481    -0.09515425     0.83258085    -0.48212727
O       3.09018024     4.62462239     2.37056384     0.09515425    -0.83258085     0.48212727
