# total energy = -4980.76003168 eV

CRYSTAL
PRIMVEC
        4.51814028     0.00000000     0.00000000
       -0.00000733     3.01209317     0.00000000
       -2.25909677    -1.50609255     5.00534016
PRIMCOORD
6 1
Ti     -0.00019418     2.25917930     1.25133478    -0.00675918    -0.00957711    13.91645558
Ti      2.25923042    -0.75317899     3.75400470     0.00675918     0.00957711   -13.91645558
O       0.00004755     0.75301511     0.81532889     0.00513372     0.01011164    -6.55040684
O       2.25898858     0.75298515     4.19001064    -0.00513372    -0.01011164     6.55040684
O      -0.00001936    -0.75301789     3.31799886    -0.00201343    -0.00021572    -1.11685703
O       2.25905544     2.25901809     1.68734072     0.00201343     0.00021572     1.11685703
