# total energy = -19931.21076595 eV

CRYSTAL
PRIMVEC
        6.68965986     0.00000000     0.00000000
        0.00003111     5.82530837     0.00000000
        0.00000000     0.00000000    10.99450917
PRIMCOORD
24 1
Ti      2.42469837     3.45207223     4.07888463     0.33602505    -0.75025795     0.77051439
Ti      4.26499267     2.37323590     6.91562498    -0.33602505     0.75025795    -0.77051439
Ti      5.76941239     2.37323778     1.41832625     0.33628782     0.75020499    -0.77076919
Ti      0.92027864     3.45207053     9.57618348    -0.33628782    -0.75020499     0.77076919
Ti      2.42468306     0.53941817     1.41837033     0.33602505    -0.75025795    -0.77051439
Ti      4.26500797     5.28589014     9.57613940    -0.33602505     0.75025795     0.77051439
Ti      0.92026333     0.53941603     6.91558090    -0.33628782    -0.75020499    -0.77076919
Ti      5.76942770     5.28589221     4.07892871     0.33628782     0.75020499     0.77076919
O       2.11733056     2.05119002     5.61041404     0.96820196     1.29173196    -0.72242138
O       4.57236048     3.77411810     5.38409557    -0.96820196    -1.29173196     0.72242138
O       1.22756038     2.05121356     0.11319465    -0.96812637     1.29225570    -0.72317471
O       5.46213072     3.77409463    10.88131465     0.96812637    -1.29225570     0.72317471
O       4.57234517     0.86146386     0.11315896    -0.96820196    -1.29173196    -0.72242138
O       2.11734586     4.96384427    10.88135034     0.96820196     1.29173196     0.72242138
O       5.46211535     0.86144038     5.61044973     0.96812637    -1.29225570    -0.72317471
O       1.22757556     4.96386781     5.38405987    -0.96812637     1.29225570     0.72317471
O       0.24306962     3.54328280     2.96989133    -0.74987203     0.05185711     0.05768169
O       6.44662141     2.28202533     8.02461828     0.74987203    -0.05185711    -0.05768169
O       3.58790624     2.28197119     2.52739845    -0.75025127    -0.05181109    -0.05761022
O       3.10178479     3.54333694     8.46711097     0.75025127     0.05181109     0.05761022
O       0.24305425     0.63062855     2.52736332    -0.74987203     0.05185711    -0.05768169
O       6.44663678     5.19467957     8.46714610     0.74987203    -0.05185711     0.05768169
O       3.10176942     0.63068269     8.02465335     0.75025127     0.05181109    -0.05761022
O       3.58792161     5.19462543     2.96985619    -0.75025127    -0.05181109     0.05761022
