# total energy = -19073.07787157 eV

CRYSTAL
PRIMVEC
        5.17600016     0.00000000     0.00000000
        0.00000000     5.50899976     0.00000000
        0.00000000     0.00000000     9.26300011
PRIMCOORD
22 1
Ti      1.88216097     3.19120600     3.26477799    -0.28284228     2.45546665     0.47059099
Ti      3.38569600     2.23111702     5.98871100    -1.03610765     0.65214873    -2.11848797
Ti      4.52189300     2.23515199     1.31795399    -0.54071194    -0.42814206    -3.22471349
Ti      0.63407500     3.37934698     8.04949798     1.52808637    -0.60429329     0.92114639
Ti      1.87292498     0.60449399     1.32418198     0.42123890    -1.70675085    -2.23523539
Ti      3.31607299     5.00481201     8.03456502     0.33247384     1.00262622     0.62683930
Ti      0.71343899     0.52170902     5.90209300    -0.29075125    -0.11848753    -1.75710669
Ti      4.46564098     4.85652199     3.50129598    -0.77698998     1.28427808     1.07237719
O       3.19586101     3.53993402     4.48458500     1.88147691    -0.13719180     1.48246547
O       0.80534300     1.92086002     0.02799501    -0.15462594     0.58474698     0.04452921
O       4.31421501     3.86804497     9.15016100     0.65980497    -0.69749555    -0.06731613
O       3.37521601     0.87482900     0.26864900     1.03541988     0.49854634    -2.35533500
O       1.85042600     4.72844501     8.90076902    -3.87594717    -0.34799714     1.55738821
O       4.34780501     1.03336098     4.66990499     1.23021110    -2.49522132    -0.86590724
O       0.98192300     4.56312400     4.41495998    -1.89582419     1.95089775     1.54002272
O       0.05118102     3.31546301     2.62630801     0.30938199    -0.14313799    -0.49865947
O       5.04569598     2.38467399     6.52476200     2.79204423    -0.32814899     1.72218904
O       2.75845601     1.98734702     2.18779100    -0.17464405     0.09576103     1.11728101
O       2.41053001     3.11470099     7.26391901     0.14197354     0.97362493    -0.55630620
O       0.05113599     0.66610202     1.92122600     0.44430093    -1.87762129     2.49400262
O       2.60376797     0.60268098     6.49584702    -1.57318353    -1.17087156     0.56813328
O       2.72291303     4.64695399     2.32465201    -0.17478494     0.55726213     0.06210219
