# total energy = -19071.76570118 eV

CRYSTAL
PRIMVEC
        5.17600016     0.00000000     0.00000000
        0.00000000     5.50899976     0.00000000
        0.00000000     0.00000000     9.26300011
PRIMCOORD
22 1
Ti      1.66294200     3.41543401     3.23849799    -1.04918249    -3.82214887     2.10543988
Ti      3.87022799     2.23298797     5.99147400    -1.11209200    -0.02891541    -1.74700483
Ti      4.41916202     2.18807898     1.26973901    -0.36631523    -1.94624354     0.06866468
Ti      0.94418001     3.09948101     8.05467900    -0.52137338     2.42864849     1.15730050
Ti      1.85635803     0.58739902     1.30720799    -2.98331201    -0.56785740    -0.59711630
Ti      3.26596398     5.25600001     7.94115201    -0.47585352    -1.31642690     0.46405061
Ti      1.12097400     0.07666402     5.95108502    -1.59358344     0.00462413     0.64268527
Ti      4.05406898     4.90880999     3.54555002     2.59060568     0.65729685     1.06555888
O       3.25041898     3.34529702     4.41830200     0.28279214    -0.25996099     1.31278699
O       0.79310499     1.86897001     0.28210497     0.92467677     0.67269005    -1.60684905
O       4.40898599     3.83143199     8.42093501     0.01797767    -0.77613971     0.24640896
O       3.28187100     0.71205498     0.22231302     3.38197559     3.13758314    -0.90458308
O       1.80438102     4.64569899     9.25634602    -1.09317999    -1.47496735    -1.01058456
O       3.90859800     0.65691000     4.87312498     0.66318160     0.54670647    -0.45305220
O       0.82994699     4.92735702     4.29813998    -0.42107306    -1.17959274     0.54494963
O       5.11893802     3.42950901     2.37792301    -0.04365349     1.06694804     0.74831342
O       0.32942400     1.82383601     6.87354902    -2.05721111    -0.95276737    -1.49571154
O       2.73269503     1.97501200     2.27597198    -0.87963385     0.87281246     0.22058839
O       2.08922999     4.15078300     6.84448799     0.05512190    -0.52526243    -0.56821941
O       5.10890498     0.68378501     2.10581800    -0.22744064    -0.50625297     1.05279669
O       2.44993498     1.21577198     6.65939702     2.35246796     0.32392852     1.93733286
O       2.38137901     4.75650500     2.60351497     2.55510542     3.64529804    -3.18375555
