# total energy = -39040.39084178 eV

CRYSTAL
PRIMVEC
        7.60629642    -0.00000847    -0.00005503
       -0.00000847     7.60629642    -0.00005503
       -3.80314186    -3.80314186     9.70738094
PRIMCOORD
46 1
Ti      1.90151534     4.70902203     6.07252632     0.00000926     0.03010094     0.00333884
Ti      3.83546391     6.66179133     1.18714266    -0.00551913     0.00321157     0.00073096
Ti      1.90153390     0.98046076     5.92831317     0.00009282    -0.01887190    -0.00726928
Ti      3.79556760     2.84649255     1.24623973     0.01847930    -0.01118225    -0.01365128
Ti     -1.90164739     4.78027584     6.06653656    -0.00002391     0.02852126     0.00452669
Ti     -0.03240373     6.66175376     1.18721105     0.00536975     0.00316169     0.00063172
Ti     -1.90174929     0.94551702     6.13145449     0.00008433     0.03175159    -0.00970283
Ti      0.00729545     2.84644514     1.24632248    -0.01836514    -0.01116656    -0.01376595
Ti      3.88686968     0.94349015     8.54536859    -0.00620202     0.00613645    -0.01167744
Ti      5.70487801     2.83467237     3.66043124    -0.00022497     0.01662990     0.01952214
Ti      3.78541853    -2.83734254     8.49036432     0.01496563     0.00432845    -0.02414858
Ti      5.70471356    -0.93511809     3.64514043     0.00014784    -0.03916666     0.01490495
Ti     -0.08374423     0.94355938     8.54530953     0.00631720     0.00615060    -0.01150929
Ti      1.90171678     2.91764546     3.68950942    -0.00017843    -0.02320524     0.00405000
Ti      0.01806041    -2.83728002     8.49036264    -0.01510601     0.00440122    -0.02428614
Ti      1.90154213    -0.97058875     3.47458540     0.00009976     0.00897187     0.03057428
O       1.90165686     2.85299392     5.65308671    -0.00008202    -0.01769382    -0.02494022
O       3.84442155     4.74891783     0.80534688     0.01413773    -0.00382143     0.01317794
O       3.77830224     0.95293725     0.76471769    -0.01407525     0.00706102    -0.00818717
O      -1.90153520     2.82786683     5.72703795     0.00000874    -0.00747857    -0.00249526
O      -0.04137082     4.74888512     0.80541743    -0.01411459    -0.00375433     0.01309001
O      -1.90156495    -0.93540991     5.66395186     0.00005425    -0.00945652     0.01921746
O       0.02491156     0.95291002     0.76478628     0.01399015     0.00705460    -0.00819565
O       3.65534940     2.82568466     8.85861203    -0.00032422     0.01553564     0.00552582
O       5.70471794     4.74925081     4.09338512    -0.00002880     0.00830030     0.00463210
O       3.69840386    -0.92943934     8.91615971     0.01063100    -0.00592202    -0.00443490
O       5.70470201     0.95259924     4.09984098    -0.00001954    -0.00657226    -0.02998087
O       0.14785135     2.82570563     8.85859746     0.00048671     0.01562049     0.00559729
O       1.90144642     4.83867350     4.06970055     0.00006659    -0.02345130     0.01102721
O       0.10480987    -0.92938256     8.91616950    -0.01045257    -0.00604749    -0.00434414
O       1.90150303     0.86222632     4.04742020     0.00001723     0.01580561    -0.04346837
O       3.78661717     2.85273996     3.25757585     0.02822507     0.00147787     0.00253357
O       1.90163536    -2.81131141     8.06235092     0.00001363     0.00064355     0.01465709
O       3.81869649    -0.95368225     3.17823000     0.00918167     0.00745337     0.00343705
O      -1.90158161     0.99049919     8.11055765    -0.00000746     0.01403540    -0.00168613
O       0.01651456     2.85268376     3.25759861    -0.02830297     0.00147504     0.00254848
O      -1.90153628    -2.87977371     8.08561802    -0.00005759     0.00616859    -0.02313994
O      -0.01559732    -0.95366447     3.17827463    -0.00917139     0.00741635     0.00340234
O       3.78444937     4.87287433     6.46593452     0.00968818    -0.01840628    -0.01434959
O       5.70469052     6.68885785     1.62160956     0.00006145     0.01833609     0.03045036
O       3.66860638     0.79193530     6.53875625     0.00576442    -0.01987849     0.03237586
O       5.70469693     2.81770687     1.69057219     0.00001440    -0.01855206     0.02074752
O       0.01873091     4.87288596     6.46596839    -0.00968895    -0.01844536    -0.01428351
O       1.90156260     6.63071889     1.52724420    -0.00004911    -0.00215818     0.00730631
O       0.13462547     0.79190296     6.53890734    -0.00583435    -0.01986486     0.03219511
O       1.90155969     2.87586946     1.62887308    -0.00007816     0.01534589    -0.00468404
