# total energy = -19514.67249226 eV

CRYSTAL
PRIMVEC
        5.17600016     0.00000000     0.00000000
        0.00000000     5.50899976     0.00000000
        0.00000000     0.00000000     9.26300011
PRIMCOORD
23 1
Ti      1.96604001     3.04061702     3.27281900    -0.36159674    -0.67786492     2.12010263
Ti      3.25496900     2.29835100     5.83627202     0.60542226     0.83342931    -0.95196698
Ti      4.55200699     1.92056998     1.59186502     0.09182930    -0.22135869    -3.26734934
Ti      0.93408802     3.46104200     7.79020002    -1.33885439    -0.88053708     1.52514142
Ti      2.00617499     0.15268198     1.36682298     1.83224413    -1.75487575    -2.46974091
Ti      3.14691799     0.02712002     7.69622899     0.77163231     0.21697753     3.43941534
Ti      0.75388501     0.63048802     6.06219801    -2.05630711     0.38977321    -2.48145434
Ti      4.43823600     4.76226700     3.36007202     1.09011755     1.49338314     2.48256429
O       1.63431298     1.88953998     4.73632499    -0.25020057    -0.16619977     1.10385084
O       3.58677499     3.28912099     4.27036801    -1.12585924     1.67427780     1.40880333
O       0.21230798     2.59965198     9.25500598     0.10272255    -0.15947787     2.08384903
O       3.53003999     0.72599102     0.19342497    -0.02228093     0.98634727     0.35305553
O       1.86993402     4.75456297     8.96861399    -0.85803966    -0.19088545    -0.15122874
O       4.12097900     0.82699101     5.12410697    -0.47400798    -1.26127466    -0.12907020
O       0.80790602     4.92849899     4.55153200     0.43332412    -0.22125559     0.13350690
O       0.14424202     3.22988002     2.89612602     1.18068212    -2.12402639    -2.95510366
O       4.94005299     2.36241002     6.74918798    -0.25274236    -0.50823272    -0.38023750
O       2.64815198     1.64825002     2.22582699     0.46501863     0.68518588     0.76099874
O       2.48248600     4.04696901     6.83257298    -0.27474716    -0.06373716    -2.04565322
O       0.21176398     0.18705500     1.78826302    -0.49518643     0.90007799     1.30336852
O       4.85064997     4.87514300     7.39179501     1.58777429     0.96238947    -0.65909020
O       2.12509699     1.64445498     7.35631198    -0.07855186    -1.45306438    -1.13806067
O       2.97050802     4.18586899     2.09457198    -0.57239308     1.54094909    -0.08570081
