# total energy = -19946.77370326 eV

CRYSTAL
PRIMVEC
        5.74773459     0.00000000     0.00000000
        1.21138199     5.99618642     0.00000000
        0.00000000     0.00000000    10.33951714
PRIMCOORD
24 1
Ti      2.80114109     3.55333452     3.83588724     0.18355189    -1.76345192     0.86848143
Ti      4.15797521     2.44285205     6.50363030    -0.18355189     1.76345192    -0.86848143
Ti      5.45056816     2.44285420     1.33383022    -0.45676796    -0.34461357    -0.02087042
Ti      1.50854817     3.55333261     9.00568745     0.45676796     0.34461357     0.02087042
Ti      2.19545024     0.55524153     1.33387168     0.18355189    -1.76345192    -0.86848143
Ti      4.76366609     5.44094521     9.00564599    -0.18355189     1.76345192     0.86848143
Ti      0.90285722     0.55523921     6.50358884     0.45676796     0.34461357    -0.02087042
Ti      6.05625911     5.44094753     3.83592870    -0.45676796    -0.34461357     0.02087042
O       2.24574238     2.11135920     5.27617661     1.47056511     1.70210666    -0.55011267
O       4.71337393     3.88482737     5.06334094    -1.47056511    -1.70210666     0.55011267
O       1.48125965     2.11138335     0.10645114    -0.62181999     0.14912738     0.73524502
O       5.47785672     3.88480327    10.23306612     0.62181999    -0.14912738    -0.73524502
O       4.10768305     0.88673420     0.10641757    -1.47056511    -1.70210666    -0.55011267
O       2.85143325     5.10945237    10.23309968     1.47056511     1.70210666     0.55011267
O       4.87216585     0.88671011     5.27621017     0.62181999    -0.14912738     0.73524502
O       2.08695040     5.10947653     5.06330737    -0.62181999     0.14912738    -0.73524502
O       0.94565963     3.64722042     2.79296163     0.31119307     0.96768054     1.06502871
O       6.01345668     2.34896615     7.54655592    -0.31119307    -0.96768054    -1.06502871
O       3.55724656     2.34891015     2.37683004     0.76836752     1.06387326     0.27988937
O       3.40186975     3.64727642     7.96268734    -0.76836752    -1.06387326    -0.27988937
O       0.33996875     0.64912725     2.37679700     0.31119307     0.96768054    -1.06502871
O       6.61914756     5.34705937     7.96272037    -0.31119307    -0.96768054     1.06502871
O       2.79617887     0.64918320     7.54658890    -0.76836752    -1.06387326     0.27988937
O       4.16293744     5.34700337     2.79292859     0.76836752     1.06387326    -0.27988937
