# total energy = -19518.15349609 eV

CRYSTAL
PRIMVEC
        5.93400000     0.00000000     0.00000000
        0.00000000     9.29699974     0.00000000
        0.00000000     0.00000000     4.64899994
PRIMCOORD
23 1
Ti      4.48403000     7.03864502     2.25833699     0.09923536     0.71392285     0.09295724
Ti      4.43357300     2.30601502     2.34116302     1.10210018    -0.32004513     0.13114636
Ti      1.40149901     6.99088598     2.22080499    -0.02040608     0.84067803     0.19008301
Ti      1.48757900     2.31522498     2.35896597    -0.82633075     0.11609435     0.31029781
Ti      2.96807698     4.56184398     0.22405799     0.59805604    -0.66248868    -0.06574827
Ti      2.97644100     9.26035702     4.59049199     0.31492143    -0.30090608    -0.06154838
Ti      0.00670298     4.62546002     0.02099199    -0.61769079    -0.95511864    -0.45266319
Ti      0.03675797     0.06840098     4.61309098    -0.70870788    -0.22105325    -0.36306150
O       4.51510000     5.56097100     0.98561702    -0.87099546     0.09172234    -0.68072527
O       4.43886498     0.95341802     0.86343598    -0.11844125    -0.18689999    -0.04738982
O       1.43563200     5.48089198     0.95291397     0.97239903     0.92571292    -0.06007179
O       1.48376200     0.85253498     0.78438600     0.30149461     1.19592954     1.26423889
O       4.45388499     8.42142502     3.72932201    -0.28837632    -0.78788400    -0.77146879
O       4.47803997     3.69719899     3.83265101    -0.58829639     0.69615678    -0.17012482
O       1.41219501     8.39637700     3.56696302     0.70902541     0.13993723     0.86379945
O       1.53452200     3.59903899     3.86310802     0.11256911     0.99899685    -0.39630845
O       2.97220499     1.44997900     3.20707100    -0.23562627    -0.81852488     0.21004686
O       5.92470500     6.16022301     3.14431301    -0.00221012    -1.10974022     1.14811266
O       5.91246402     1.46829801     3.18603297     0.58344909    -0.74864253     0.31938255
O       2.95003601     7.90086601     1.39410498     0.13489401    -0.44087314    -0.11895059
O       3.02462799     3.23536499     1.51577399    -0.97498891     0.82204678    -0.71952631
O       5.92297698     7.90171603     1.33244000    -0.10229163     0.10300666    -0.37877891
O       5.92304402     3.29630600     1.48224299     0.42621733    -0.09202779    -0.24369850
