# total energy = -19071.83597584 eV

CRYSTAL
PRIMVEC
        5.93400000     0.00000000     0.00000000
        0.00000000     9.29699974     0.00000000
        0.00000000     0.00000000     4.64899994
PRIMCOORD
22 1
Ti      4.52866297     6.89668799     2.45808198    -0.53985884     1.10330757    -1.36947624
Ti      4.33336402     2.32078102     2.24512698     0.39150562     0.38237409     0.37542337
Ti      1.50824697     7.16259500     2.48722102     0.66603681     1.41796186    -0.47863109
Ti      1.54819398     2.25047802     2.08036701    -0.95566037     1.63333606     1.39293576
Ti      2.96932002     4.68743800     4.47934302     1.28734952     0.27527038     0.51105991
Ti      2.95551902     0.16316799     0.19559100     0.27990505    -1.57912381    -2.21418396
Ti      5.77121799     4.53760797     4.32405098    -1.03036355    -0.72712367     0.41941676
Ti      0.11738300     9.27115801     0.14815598    -3.08844446    -1.08089037    -0.04624491
O       4.62643800     5.53328000     0.83572497    -0.37339425    -0.59706823     1.07034704
O       4.19480103     0.73239798     1.22653899     3.11828804     0.05289970     0.35172036
O       1.46054101     0.60427999     1.39969298     0.19441249    -0.09221162    -0.95193304
O       4.73847699     8.33433901     3.91293302    -1.56533112     1.20848938    -1.10683281
O       4.18878597     3.95070802     3.28565699     1.32606006     0.09589576     0.88766110
O       1.42093998     8.50693901     3.76285898     0.85716626     0.67416124     0.44784674
O       1.48179102     3.99872202     3.66841698    -0.04012594    -0.59258036    -0.54011441
O       3.08458700     6.31965898     3.53462499    -1.88836721    -0.78170564    -0.03765973
O       2.97657202     1.56030500     3.36126102    -0.42097099    -0.88812518     0.86775689
O       0.15664202     6.21114801     3.33362898    -0.47157263    -2.06715640     0.34835967
O       2.98628301     7.87607601     1.61876601     0.35606064    -0.63058977    -1.29123111
O       2.96184200     2.79498099     1.05405599    -0.33634747     2.50911042    -0.18320711
O       5.86171899     7.85721000     1.36997598     1.40638649    -1.00142654     1.68935193
O       5.84908198     2.82032397     1.19901701     0.82726509     0.68519488    -0.14236563
