# total energy = -19073.58919085 eV

CRYSTAL
PRIMVEC
        5.93400000     0.00000000     0.00000000
        0.00000000     9.29699974     0.00000000
        0.00000000     0.00000000     4.64899994
PRIMCOORD
22 1
Ti      4.43615099     6.78607502     2.42311300    -0.25287632     0.58792666    -0.78845273
Ti      4.39660600     2.49387098     2.12069000     0.65816589    -0.53274589    -0.38107080
Ti      1.46962302     7.15012002     2.50175599     1.22524141     0.85668521     0.42730285
Ti      1.63173398     2.27188700     2.15622700    -1.33442026     1.02163311    -0.12701537
Ti      3.00312598     4.55912400     4.35088799    -0.81674079     0.35871839     0.71500503
Ti      3.00154099     0.09721801     0.08731499     1.39764114    -0.82394374    -0.70220787
Ti      5.79511500     4.54499301     4.51104899     0.69507023    -0.35144062     0.57763556
Ti      0.00348998     9.13697803     0.26798002    -0.88425773    -0.05123928    -0.02239046
O       4.39438298     5.30969002     0.98335400    -0.07127743     1.06354339     0.51835824
O       4.37114702     0.80605300     1.17878201     1.07055067     0.60126221    -0.41094523
O       1.64157001     0.67188799     1.18537498    -1.73445604     1.07908777     0.25073742
O       4.48972400     8.35665098     4.04535798     0.37304330     0.36338931    -1.08765392
O       4.43852001     4.12435198     3.29633902    -0.09829202    -1.41580599    -0.37443632
O       1.53232200     8.52506899     3.77882701    -0.92353803     0.63336065     0.43242912
O       1.41110601     3.97507102     3.52454602     0.51824743    -0.44346327    -0.06990344
O       2.97401102     6.33913498     3.51025098    -0.71771369    -1.43778765    -0.05744001
O       2.93529498     1.69592101     3.24996801     0.85263572    -0.94647690     1.65385655
O       0.07975802     6.21781798     3.47136000    -0.09167323    -0.45676436    -0.18519586
O       2.98742698     7.84818700     1.52012801     0.09438755    -1.07117314    -0.01204485
O       2.93754801     2.99519599     1.01902800    -0.34753820     1.49915142    -0.16766916
O       5.89315800     8.04328301     1.71939499    -0.21862304    -1.23453390    -0.32484075
O       5.88613899     2.93897102     1.07720797     0.60642370     0.70061662     0.13594199
