# total energy = -4984.33040590 eV

CRYSTAL
PRIMVEC
        4.12683648     0.00000000     0.00000000
        0.00000000     3.48176451     0.00000000
        0.00000000    -0.00007865     5.46587803
PRIMCOORD
6 1
Ti      2.06341813     1.74084287     2.73293918     0.00000000     0.00000000     0.00000000
Ti      0.00000000     0.00000000     0.00000000     0.00000000     0.00000000     0.00000000
O       2.06341813     0.67852928     1.06521918     0.00000000     0.14172003     1.62266032
O       2.06341813     2.80315652     4.40065913     0.00000000    -0.14172003    -1.62266032
O       0.00000000     1.06228225     3.79815940     0.00000000    -0.14128654     1.62267806
O       0.00000000     2.41940350     1.66771896     0.00000000     0.14128654    -1.62267806
