# total energy = -4984.58411543 eV

CRYSTAL
PRIMVEC
        3.21102656     0.00000000     0.00000000
        2.36762252     4.43929149     0.00000000
       -0.00001523    -0.00006859     5.20637649
PRIMCOORD
6 1
Ti      2.78931667     2.21961134     2.60318836     0.00000000     0.00000000     0.00000000
Ti      0.00000000     0.00000000     0.00000000     0.00000000     0.00000000     0.00000000
O       2.06692495     0.86513912     1.01464615    -1.45634639     1.08979462     0.76571929
O       3.51170843     3.57408368     4.19173062     1.45634639    -1.08979462    -0.76571929
O       0.72238527     1.35444466     3.61783553     1.45618030    -1.08987612     0.76612732
O       1.64522167     3.08477822     1.58854119    -1.45618030     1.08987612    -0.76612732
