# total energy = -4978.49806696 eV

CRYSTAL
PRIMVEC
        2.87463330     0.00000000     0.00000000
        2.11958588     3.97422286     0.00000000
       -0.00001363    -0.00006140     4.66094658
PRIMCOORD
6 1
Ti      2.49710255     1.98708063     2.33047339     0.00000000     0.00000000     0.00000000
Ti      0.00000000     0.00000000     0.00000000     0.00000000     0.00000000     0.00000000
O       1.85038995     0.77450550     0.90834989    -9.31270905     3.85921982     5.50878134
O       3.14381516     3.19965586     3.75259693     9.31270905    -3.85921982    -5.50878134
O       0.64670682     1.21255045     3.23882418     9.31228379    -3.85893880     5.50814062
O       1.47286511     2.76161098     1.42212259    -9.31228379     3.85893880    -5.50814062
