# total energy = -19076.96078854 eV

CRYSTAL
PRIMVEC
        7.60600008     0.00000000     0.00000000
        0.00000000     7.60600008     0.00000000
       -1.89786986    -1.89786986     4.85670466
PRIMCOORD
22 1
Ti      3.78816101     6.54473199     1.07485102    -0.17415862     0.51402028     1.78607070
Ti      3.78577098     2.85401801     1.21638598    -0.24891322    -0.43072087    -0.30131823
Ti      0.01085702     6.70635701     1.10739902     0.13640067    -0.27473919     1.10655873
Ti     -0.03416802     2.92339902     1.21751398     0.40795915    -0.38308886     0.14090319
Ti      5.72432823     2.86667821     3.64493781     0.22346829    -0.54560449    -0.24936033
Ti      5.77692824    -0.94394977     3.70675683    -0.25622981     0.67739260    -0.72185214
Ti      1.93235725     2.83576822     3.61485483    -0.39748267    -0.83981311    -0.65487179
Ti      1.89813922    -0.98524575     3.75936880    -0.23884554     0.89005325    -1.61473695
O       3.64276501     4.68795099     0.71738401     0.46367780     0.59604107     0.56264525
O       3.73053499     0.89951602     0.77438402     0.25182551     0.22476824     1.32561500
O       0.03795000     4.76967300     0.79587200    -0.13015109    -0.06953114    -0.52447413
O      -0.05989302     0.97314802     0.85123601     0.09575177    -0.17243264    -0.07717426
O       5.75121022     4.78400825     4.05559381     0.18991563    -0.12967158    -0.09905976
O       5.72424621     0.95046722     3.90315282    -0.11395339     0.05135241     0.82596951
O       1.86369523     4.71575523     4.07656679     0.05688516     0.35678980    -1.00051457
O       1.83358123     0.93294923     4.07003982     0.48419907    -0.43131223    -0.38476290
O       3.81931521     3.01082022     3.29353380    -0.01339828    -0.56209041    -0.63331771
O       0.03087125     2.83367522     3.22851781    -0.75149877     0.36660628    -0.57291990
O       5.63886801     6.43428899     1.82187800     0.19731707     0.69892046    -0.42806107
O       5.70146602     2.87738002     1.54476899    -0.37512229     0.13801173     0.65804633
O       1.91242197     6.65094400     1.78258802    -0.21618229    -0.09610273     0.21421771
O       1.88261501     2.93460398     1.57801799     0.40853559    -0.57884912     0.64239731
