# total energy = -19075.70926623 eV

CRYSTAL
PRIMVEC
        7.60600008     0.00000000     0.00000000
        0.00000000     7.60600008     0.00000000
       -1.89786986    -1.89786986     4.85670466
PRIMCOORD
22 1
Ti      3.78059499     6.74019398     1.09646098     0.45783368     1.42261942    -0.03664055
Ti      3.91710002     3.05853100     1.18979398     0.38611325    -2.71942494     0.67333514
Ti      0.04207398     6.64056398     1.12063300    -1.47295289    -0.36361069     0.67254222
Ti     -0.00005398     2.77170999     1.09060097    -0.58371134    -0.39399728     0.81323355
Ti      5.76154823     2.63859223     3.67894179    -0.55537957     0.84338051    -0.51332248
Ti      6.11332420    -1.13627876     3.75809782    -1.38276190     0.93847177    -0.81544033
Ti      1.90834620     2.90044421     3.58151280     0.36181914    -0.77469912    -0.87941582
Ti      1.42052823    -0.80559378     3.78081280     0.50397677    -0.19141690     0.07676546
O       3.84698102     4.80821202     0.70539402    -0.48187788     1.62393456     0.38325675
O       3.96423702     1.07260498     0.73311301    -0.90991529    -1.26683133     1.62987098
O       0.03554002     4.65124598     0.77119001    -0.11819957     0.45969593    -0.23119188
O       7.20108302     0.82389400     0.66446099     1.08492957     0.47761884     1.36320403
O       5.62364125     4.69805722     4.12128783     0.86050972    -1.02682905    -1.60492664
O       5.54582923     0.78061122     4.01237183     0.97010098     0.35547931    -0.16381250
O       1.88999121     4.94650720     4.03372180    -0.09132099    -1.33282901    -0.03791016
O       2.09229922     0.94754023     4.05666682    -0.76167082     1.45927848    -0.33919394
O       3.85426520     2.80903525     3.23633381    -0.59547954     0.64747086    -0.70005791
O       0.00276924     2.73169324     3.27776479    -0.02869558    -0.01552818     0.02074007
O       5.55330200     6.58496898     1.97234500     0.02244522    -0.10859058    -0.82113532
O       5.76047199     2.87943799     1.53588601    -0.64791284     0.39236232     1.02076921
O       1.75736701     6.81916400     1.88603302     1.40839993    -0.31519654    -0.59297297
O       1.80510102     2.88303899     1.62224001     1.57375020    -0.11135915     0.08230259
