# total energy = -19073.60436161 eV

CRYSTAL
PRIMVEC
        5.17600016     0.00000000     0.00000000
        0.00000000     5.50899976     0.00000000
        0.00000000     0.00000000     9.26300011
PRIMCOORD
22 1
Ti      1.75056099     3.35238000     3.32844097    -0.11542509     1.31022334     0.03257229
Ti      3.95702502     2.21753700     5.86584001    -0.19696560     0.18404915    -1.33506227
Ti      4.31473598     2.11831802     1.30953901     0.83382449     0.16562847    -1.57931819
Ti      0.66021000     3.30782899     8.09868601     1.23791670    -1.44800136     1.14840114
Ti      1.72396502     0.46917501     1.42841699    -0.27319601     0.83591326    -2.70630331
Ti      3.07773701     5.15109798     7.99864299     1.12638220     0.38158785     1.47261402
Ti      1.02457299     0.05447398     6.02783599    -0.37194801     1.35865626    -0.30895030
Ti      4.30487100     5.00046201     3.43179702     0.58615595    -0.82219050     0.70156972
O       3.42300601     3.50780799     4.22138297     0.60176435    -1.40324435     3.47558897
O       0.89428198     1.97295001     0.19088201    -1.04040242    -0.04534579     0.10528286
O       4.15667899     3.62271999     8.55109398    -1.48891379     0.34824680     0.77896896
O       3.38346303     0.84881502     0.21801801    -0.23420624     0.11442390    -0.32332586
O       1.63041802     4.64828698     9.19039302    -0.69662523     0.53807887     0.11521632
O       4.39649498     0.84554799     4.69531301    -0.91645566     0.81331582     0.53507093
O       1.14839099     5.10568499     4.31406101    -0.16945787    -1.78095883    -0.13522465
O       0.02965001     3.45453698     2.36182200     0.30011238     0.19373552     0.61990169
O       0.37850302     1.80598898     6.74370602    -0.52030174     0.40658078    -0.00352653
O       2.47841001     1.99641098     2.35158501     0.95887888    -0.90328055    -0.39895848
O       1.97993398     4.06104999     6.90500702     0.03058663     0.10379882    -1.71474441
O       5.12001299     0.63154400     2.11248098     0.36609386     0.06218627    -0.06858703
O       2.76346398     1.11527302     6.69057202    -0.52969013    -1.14643656     0.66008496
O       2.66661799     4.68629498     2.39770598     0.51187212     0.73303361    -1.07127136
