# total energy = -19075.14174998 eV

CRYSTAL
PRIMVEC
        7.60600008     0.00000000     0.00000000
        0.00000000     7.60600008     0.00000000
       -1.89786986    -1.89786986     4.85670466
PRIMCOORD
22 1
Ti      3.86368201     6.53558802     1.15899301     1.03121150     1.02947909    -0.66825541
Ti      3.73886598     2.83366400     1.12465099    -0.04481949    -0.14595541     0.91267126
Ti      0.24166202     6.68326800     1.05284000    -0.75239891     0.58784850     1.10584396
Ti     -0.12647299     2.87080299     1.26070299    -0.35546337    -0.56936124    -0.85651911
Ti      5.66354524     2.79654322     3.60841882    -2.15965752     0.50838467     0.37319473
Ti      6.12157021    -0.78324477     3.62131079    -0.10561839    -0.98726721     0.08764431
Ti      1.75055221     2.81981321     3.60003083     1.62470280    -0.69245285    -0.20445446
Ti      1.55049823    -1.21730580     3.77980880    -0.40616940     3.04615262    -1.78760822
O       3.74532898     4.74366499     0.87891102     0.03294356    -0.10523298    -0.96601318
O       4.03350600     0.96685399     0.62499500    -0.56691946    -0.09309351     1.96396745
O      -0.18887902     4.87318202     0.70963902     0.51250872     0.28303974     0.06331755
O      -0.27509999     1.00679703     1.06179600     1.34606351    -0.11184946    -0.79246494
O      -1.40304876     5.00067823     4.10944182    -0.30322188    -0.38923354    -1.01623841
O       5.61849722     0.99063124     4.08373180     0.53694604    -0.27161838    -0.09046327
O       2.22278020     4.76143323     3.96860379    -0.67804952    -2.03132292     1.08578909
O       1.63323520     0.98595321     3.98749981    -0.06964658    -0.35653475     0.40421048
O       3.74036223     2.74902422     3.24748183    -0.10114184     0.07023254    -0.61269488
O      -0.14981378     2.94108725     3.17715581     1.12417748     0.03057891     0.98893895
O       5.65886498     6.66429101     1.81798299     0.41541226    -0.13051902     0.84414079
O       5.59441500     2.98277700     1.61872998    -0.33077023     0.09234866    -0.03377377
O       2.14580999     6.55651301     1.89957498    -1.47915980     0.70112467     0.11991527
O       1.76246399     3.01804402     1.71282600     0.72907077    -0.46474841    -0.92114870
