# total energy = -19076.93265318 eV

CRYSTAL
PRIMVEC
        5.17575250     0.00001323     0.00000000
        0.00001429     5.50856584     0.00000000
        0.00000000     0.00000000     9.26345890
PRIMCOORD
22 1
Ti      1.89891407     3.31088060     3.39273174     0.27124660     0.70653015    -0.43083040
Ti      3.32126543     2.25666746     5.86103225     0.30541066    -0.04279937     0.36445915
Ti      4.48682067     2.25133121     1.18067340     0.17782990     0.12824230    -0.17505080
Ti      0.73060821     3.25041260     8.08343656     0.18395993    -0.04556511    -0.01481599
Ti      1.86884115     0.52198291     1.19334185    -0.12531253     0.34132898     0.13170172
Ti      3.27223750     4.99398895     8.08926630    -0.34018484    -0.04201261     0.06684459
Ti      0.70775582     0.52932452     5.82657764     0.02639110     0.16412823    -0.16540427
Ti      4.45544719     4.98532483     3.42809795     0.09814753    -0.07349398     0.32720000
O       3.51053352     3.54051361     4.54647872    -0.30111357    -0.25169644     0.02262546
O       0.94455817     1.92827782     0.10930341    -0.03539896    -0.22010657     0.24344139
O       4.21215827     3.59364238     9.14767352    -0.18687427     0.16645817    -0.16161035
O       3.54696264     0.80967202     0.08454436     0.09744536     0.06717549    -0.04560162
O       1.63218697     4.68969496     9.15763797    -0.16472627    -0.04171899    -0.09099755
O       4.23456090     0.81898127     4.73333564     0.08185059    -0.06150467    -0.08254453
O       0.95606951     4.68647948     4.55372347    -0.04431632    -0.15315399     0.15761048
O       0.18184716     3.34265618     2.51007141    -0.17523412    -0.08915201     0.01905702
O       5.01804535     2.13447614     6.75243882     0.50848289    -0.25926114     0.06786095
O       2.76185249     2.14986418     2.15205128    -0.07489318    -0.28296132     0.08629808
O       2.39595000     3.35578160     7.11845630    -0.14762251     0.12397401    -0.13142919
O       0.18845853     0.59003544     2.13959658     0.01651626    -0.19525813     0.14633490
O       2.38773702     0.60948543     6.73262299    -0.03783688     0.18899878    -0.26194306
O       2.77050949     4.90157296     2.50732396    -0.13376735    -0.12815154    -0.07320628
