# total energy = -19007.93455586 eV

CRYSTAL
PRIMVEC
        7.60600008     0.00000000     0.00000000
        0.00000000     7.60600008     0.00000000
       -1.89786986    -1.89786986     4.85670466
PRIMCOORD
22 1
Ti      4.50859297     6.01335997     0.38210900    -0.00206280    -0.10639640     1.79051356
Ti      4.72857820     3.13348022     2.92884579    -8.11703611    11.14311278   -13.62715263
Ti      1.20599601     6.13853997     0.57705297     2.40310097     5.78034187     5.00277365
Ti      0.44103701     3.03875702     0.75175899     3.93869599    -4.89614431    19.28100055
Ti     -1.77111678     2.70244921     4.55159281   -39.19089214    22.23459703    34.48587728
Ti      5.75394321     1.51489222     3.61116482    -7.29179062   -34.39385284   -32.31087412
Ti     -0.41439680     2.61031824     3.99255779    55.99299042     2.90975452   -18.05860278
Ti      0.35185022    -0.92521176     3.96834782     5.19417050    -1.11123788    -0.86052104
O       4.43019801     5.06661298     2.34995297    -0.41672455    -0.26413055    -1.75999584
O       4.08394802     0.20903999     0.06255198    -2.41242200    -0.56442703    -0.51976669
O       2.05382999     4.22123697     1.08718799    -2.10966934     0.59744206    -1.45501147
O       0.80111101     0.89110099     0.40711802     0.95883569     0.55901897     0.91388353
O      -0.89831077     4.94124221     3.82220981     1.47689620     0.46173430    -2.37126993
O       4.79175202     1.15522399     2.04135601    -0.46491733     0.81786642     1.93906939
O       1.46853423     3.43201525     4.05933879    -0.73836737     1.73094597     1.84746995
O       0.83369325     0.77951323     3.98252782    -2.52524359    -1.74274348     0.59294109
O       3.53725723     2.95775623     4.09211280    -4.86271353    -3.77191232     1.53990290
O       0.32824198     2.33517200     2.34335498    -0.05303159    -1.34174354     0.18442478
O       6.74105198     5.84546801     0.30864999    -0.68394378     6.45959544     4.44664409
O       5.98964802     3.25920099     1.76534700     3.66921291     0.70322680    -3.40071919
O       1.30217900     6.21307798     2.21958900    -1.25650012     2.15376944     5.36899967
O       5.56048024    -0.01225977     4.55640684    -3.50858858    -7.35881751    -3.02958700
