# total energy = -19516.57310284 eV

CRYSTAL
PRIMVEC
        5.17600016     0.00000000     0.00000000
        0.00000000     5.50899976     0.00000000
        0.00000000     0.00000000     9.26300011
PRIMCOORD
23 1
Ti      1.88306401     3.21850303     3.29357301     0.03034494     0.09667943     3.09430889
Ti      3.30273100     2.19847900     5.90000502     0.73216972     0.45444060    -2.66480826
Ti      4.49631500     2.21302799     1.37680501    -0.36554287    -0.43635288    -3.19328277
Ti      0.72489002     3.38662301     7.95799900     0.53309401    -1.27988740     1.62951899
Ti      1.86472898     0.56753302     1.34498500    -0.17483122     0.08739029    -3.22419644
Ti      3.33797802     5.07813100     7.92165902    -0.40549217    -0.27624997     3.61933144
Ti      0.76795197     0.58870202     5.83861099    -1.05212614    -0.00049545    -2.53423860
Ti      4.44303802     4.87632798     3.42939201     0.18129009     1.39275939     2.52208653
O       1.59105401     1.89913201     4.77459202     0.57026704     0.06230248    -0.50270433
O       3.39643200     3.51200701     4.43875502     0.51971373     0.71494255     0.54985504
O       0.84736301     2.09336398     0.15915397    -0.33882396     0.55875183    -0.28716533
O       3.45740899     0.85073398     0.12581200     0.45381659     0.01720480    -0.45140926
O       1.79214300     4.73058997     8.95591400    -1.04689317    -0.26712512     1.41722010
O       4.29609799     0.85040398     4.79050501    -0.13785669    -1.09337462    -0.92474156
O       0.87694502     4.66245798     4.51667801    -0.05345428     0.25953445     0.02619492
O       0.05833999     3.27931798     2.66810402     0.50187001     0.92244119    -0.57952455
O       5.01590901     2.20127798     6.66513600     0.29753691     0.06632112     1.29319081
O       2.81099500     1.93021598     2.26008799    -0.94807922     0.84197823     0.16857496
O       2.33111897     3.15939001     7.15452002     1.62210856     1.17887103    -0.14915438
O       0.00506999     0.74697301     2.05013803     1.56045554    -3.40036233     1.84176904
O       5.07012402     4.85614098     7.09565599    -0.51023227     0.21703615     0.53546046
O       2.65274100     0.61083602     6.73324000    -2.26961362     0.18981793    -1.40098563
O       2.62644602     4.83862098     2.52378500     0.30027874    -0.30662345    -0.78530030
