# total energy = -19943.41233691 eV

CRYSTAL
PRIMVEC
        4.94543166     0.00000000     0.00000000
        0.00002461     4.76215516     0.00000000
        0.00000000     0.00000000     8.45087470
PRIMCOORD
24 1
Ti      1.79249573     2.82204870     3.13521431    -0.57471325     1.72772180    -2.58017986
Ti      3.15296055     1.94010637     5.31566068     0.57471325    -1.72772180     2.58017986
Ti      4.26512537     1.94010801     1.09018942    -0.56957849    -1.72841986     2.58074293
Ti      0.68033095     2.82204730     7.36068571     0.56957849     1.72841986    -2.58074293
Ti      1.79248347     0.44097121     1.09022333    -0.57447336     1.72878598     2.57922340
Ti      3.15297285     4.32118400     7.36065181     0.57447336    -1.72878598    -2.57922340
Ti      0.68031865     0.44096948     5.31562682     0.56981889     1.72812701     2.58175209
Ti      4.26513763     4.32118579     3.13524822    -0.56981889    -1.72812701    -2.58175209
O       1.56526903     1.67683573     4.31241678    -1.13135009    -2.27981139     1.01158909
O       3.38018730     3.08531934     4.13845821     1.13135009     2.27981139    -1.01158909
O       0.90749312     1.67685499     0.08700650     1.13125007    -2.28151732     1.01328627
O       4.03796325     3.08530013     8.36386830    -1.13125007     2.28151732    -1.01328627
O       3.38017499     0.70424171     0.08697910     1.13185274     2.28087351     1.01236196
O       1.56528133     4.05791336     8.36389570    -1.13185274    -2.28087351    -1.01236196
O       4.03795095     0.70422250     4.31244423    -1.13060087     2.28046753     1.01245838
O       0.90750528     4.05793262     4.13843081     1.13060087    -2.28046753    -1.01245838
O       0.17969402     2.89661274     2.28279214     0.79660339    -0.13185136     0.19921018
O       4.76576230     1.86554238     6.16808285    -0.79660339     0.13185136    -0.19921018
O       2.65241424     1.86549805     1.94267222     0.79785346     0.13063317    -0.19918575
O       2.29304204     2.89665706     6.50820267    -0.79785346    -0.13063317     0.19918575
O       0.17968172     0.51553511     1.94264521     0.79738578    -0.13085712    -0.19927960
O       4.76577456     4.24662001     6.50822964    -0.79738578     0.13085712     0.19927960
O       2.29302978     0.51557943     6.16810981    -0.79715026    -0.13168835    -0.19912841
O       2.65242654     4.24657564     2.28276518     0.79715026     0.13168835     0.19912841
