# total energy = -19075.98512339 eV

CRYSTAL
PRIMVEC
        7.60600008     0.00000000     0.00000000
        0.00000000     7.60600008     0.00000000
       -1.89786986    -1.89786986     4.85670466
PRIMCOORD
22 1
Ti      3.83822499     6.67588000     1.14636297     0.13254530     0.14928576    -0.25213687
Ti      3.78846698     2.90403600     1.23167799    -0.13810274    -0.24512984    -0.03395503
Ti     -0.01786698     6.59163900     1.11203302    -0.34587470    -0.73269217    -0.20808948
Ti     -0.01690700     2.76621999     1.19578898     0.24743355     1.42873787    -0.40871505
Ti      5.76430720     2.74795523     3.52896179    -0.95848987     1.17950250     0.32185853
Ti      6.07951020    -0.88177477     3.75362579    -0.73041366    -1.69603757    -0.88536227
Ti      1.91761823     2.88678123     3.64785480     0.85804249    -0.92437004    -0.69727881
Ti      1.44513624    -0.97874777     3.74561283     0.82159349     1.25174127     0.23262116
O       3.72859698     4.77424101     0.94754298    -0.08868612     1.54098431    -1.00090898
O       3.99886802     1.09115000     0.71185500    -0.79191627    -1.73384463     0.69220551
O      -0.04473199     4.71448198     0.85043801     0.43104098    -0.09404250    -0.82574582
O      -0.16205000     0.96352800     0.80978000     0.49418858    -1.05537268    -0.44224842
O       5.72977722     4.66459924     4.04754782     0.57562316     1.32486218    -0.33129216
O       5.50006423     0.89413524     3.81123579     1.03543094    -0.00068031     0.99581665
O       2.12979624     4.80548120     4.07548680    -1.15816028     0.48984624     0.48536918
O       1.89393025     1.08205524     4.03526684    -0.39162029    -1.09850886     0.14760323
O       3.81423320     2.91993222     3.23064680     0.19244971    -0.20012240    -0.38344058
O       0.10367720     2.82159220     3.07450781    -1.70743528     0.15520316     1.53108993
O       5.60755500     6.56183600     1.82883298     0.63382087     0.34074431     0.29964187
O       5.72802199     2.86370503     1.53302602    -0.27920828     0.14667429     1.21868510
O       1.84360501     6.75177401     1.92132999     0.39314779    -0.20592230    -0.64279094
O       1.88928000     2.81523800     1.55665399     0.77459011    -0.02085860     0.18707379
