# total energy = -39040.37691907 eV

CRYSTAL
PRIMVEC
        7.60629642    -0.00000847    -0.00005503
       -0.00000847     7.60629642    -0.00005503
       -3.80314186    -3.80314186     9.70738094
PRIMCOORD
46 1
Ti      1.92023007     4.75396264     6.20907021     0.00329744    -0.00012187    -0.00925932
Ti      3.80342546     6.62529782     1.18192318     0.00337252     0.00666404     0.00599813
Ti      1.81856204     0.95084211     5.94928932     0.02947437    -0.00025634     0.04502029
Ti      3.80350306     2.88278331     1.18187139     0.00335015    -0.00690881     0.00616525
Ti     -1.91268135     4.75404719     6.08476668    -0.01446683     0.00001234     0.01541763
Ti     -0.00380435     6.67195730     1.24422252    -0.00046383     0.00719318     0.03369740
Ti     -1.81898139     0.95084657     6.02135841    -0.03668991     0.00028334    -0.02138362
Ti     -0.00381427     2.83595751     1.24422421    -0.00038335    -0.00699777     0.03394474
Ti      3.79760873     0.95080813     8.63272611     0.03614355    -0.00002031     0.01240506
Ti      5.68543335     2.87185632     3.63360762    -0.01429302     0.01587503     0.02522767
Ti      3.83085482    -2.85237144     8.54288472     0.00385177     0.00006145     0.01349470
Ti      5.68541291    -0.97057663     3.63360866    -0.01428583    -0.01571716     0.02544416
Ti      0.02577468     0.95063672     8.40248797     0.03083139     0.00030725    -0.01696414
Ti      1.91513449     2.79158531     3.59426281     0.00001466     0.04208280     0.02603963
Ti     -0.02248988    -2.85258925     8.52523516    -0.01063794     0.00041241    -0.02824409
Ti      1.91508331    -0.89006189     3.59434677     0.00008459    -0.04302331     0.02588948
O       2.00403034     2.91483952     5.60332648    -0.01727885    -0.02597201    -0.02730795
O       3.83892644     4.75396631     0.72824955     0.01628100    -0.00010542     0.00046897
O       2.00402543    -1.01326173     5.60333196    -0.01728296     0.02583985    -0.02684721
O       3.77719985     0.95076906     0.79330921    -0.00133877     0.00005682    -0.04482026
O      -2.03791928     2.82427376     5.66493178     0.00225640     0.02922831     0.03906870
O      -0.03655509     4.75394954     0.84107453    -0.01843919    -0.00010182    -0.00377284
O      -2.03790663    -0.92270578     5.66496628     0.00226746    -0.02904088     0.03907178
O       0.02360716     0.95078951     0.87677996     0.00035404     0.00011416    -0.03859613
O       3.79813911     2.86768930     8.96688353    -0.00220781    -0.00257522    -0.00276059
O       5.73298811     4.75389620     4.11119704     0.02441340     0.00005811     0.01272465
O       3.79811489    -0.96608628     8.96691134    -0.00214302     0.00262690    -0.00271277
O       5.65647355     0.95075465     4.01418103    -0.01866673     0.00016789     0.01324607
O       0.00887112     2.83033546     8.87211700     0.01224823     0.00290818    -0.02988497
O       0.00893046    -0.92874270     8.87211439     0.01221043    -0.00286601    -0.02978727
O       1.95952258     0.95077270     3.99001371     0.02816670    -0.00012187     0.02096015
O       2.02071356     0.95087592     7.96140559     0.00658305     0.00007688    -0.05392608
O       3.78105437     3.01944400     3.21329835     0.01487024    -0.00336198     0.01625349
O       1.89832105    -2.85236264     8.13099585     0.01908608    -0.00002340    -0.00130278
O       3.78102035    -1.11781224     3.21335833     0.01499519     0.00317686     0.01602004
O      -2.00176334     0.95088576     7.99635591    -0.04085304     0.00001028    -0.01590228
O       0.02058686     2.94022717     3.27498139    -0.01447660    -0.02686367    -0.00508102
O      -1.89995689    -2.85230688     8.11365309    -0.01096884     0.00002957    -0.02041971
O       0.02059343    -1.03868544     3.27503633    -0.01456145     0.02673151    -0.00525971
O       3.81393854     4.75396347     6.55414842    -0.00879446     0.00003137    -0.00825659
O       5.69728506     6.67561302     1.66060385    -0.00765829     0.00438810    -0.00154858
O       5.69729629     2.83214616     1.66058421    -0.00769814    -0.00422458    -0.00142131
O      -0.01575784     4.75390258     6.48644759     0.01407114     0.00008947     0.00559781
O       1.90424111     6.60763841     1.61605242     0.00548622    -0.03963717    -0.02059403
O       0.01128788     0.95074724     6.40340626    -0.01560403     0.00005965     0.00441304
O       1.90426851     2.90033090     1.61606188     0.00548365     0.03945436    -0.02051535
