# total energy = -19073.23293694 eV

CRYSTAL
PRIMVEC
        7.60600008     0.00000000     0.00000000
        0.00000000     7.60600008     0.00000000
       -1.89786986    -1.89786986     4.85670466
PRIMCOORD
22 1
Ti      3.72281498     6.41842299     1.11477898    -0.51407093    -0.29827276     0.65570843
Ti      3.74490400     2.73176002     1.18571598    -0.02163070     1.29202635     0.25821059
Ti      0.07281299     6.78945397     1.14210299    -1.68780644    -0.75454861     1.11510868
Ti     -0.09137600     3.01083001     1.21039998    -0.64786502     0.65738247     0.05529365
Ti      5.73355623     2.92284122     3.57211683    -1.10047910    -0.56983406     0.53621996
Ti      6.10311124    -0.83387878     3.71418680    -1.33352860     0.00986558    -1.37576953
Ti      1.98419323     2.63986823     3.52106779    -0.41701072     1.54353022     2.16435287
Ti      1.97312421    -1.06684880     3.78793781    -1.27043037    -0.80876060     1.21769445
O       3.23639800     4.59203200     0.62831300     1.33113773     0.23763250     0.32854237
O       3.70572499     0.85822199     1.24190201     0.11202841    -0.62660790    -2.03674718
O       0.13195098     4.78401201     0.66451301    -0.88941716     0.07888610     0.39902122
O       7.33876700     1.20105402     0.56301798    -0.01496434    -1.29927687     2.46132517
O      -1.27717580     4.87286923     4.37118983    -0.07056498     1.45676419    -3.23185653
O       5.60089721     1.03653324     3.78628079     0.94489362     0.37577149    -0.13867070
O       1.70047723     4.59440923     4.12764182     1.00961345     1.83267170    -0.31343070
O       1.87670320     0.78851924     3.86141084     0.39647222     0.12307104     1.21593401
O       3.79877525     3.14758724     3.20904583    -0.21070275    -0.62793510     0.56650268
O      -0.14394579     3.12459020     3.12088379     1.42246875    -1.27377177    -1.14073822
O       5.43999701     6.39435701     1.92207703     1.35361741     0.14187430     0.09832751
O       5.52016598     3.22872800     1.50734901     1.43534973    -0.64407187    -0.05916111
O       1.63622198     6.52536802     2.01927302     1.56675191     0.02246554    -0.90409174
O       1.86532202     2.87328001     1.75115600    -1.39386136    -0.86886196    -1.87177588
