# total energy = -4980.31197631 eV

CRYSTAL
PRIMVEC
        2.79864964     0.00000000     0.00000000
        1.68656330     4.04775164     0.00000000
       -0.00001075    -0.00005826     4.47907212
PRIMCOORD
6 1
Ti      2.24260102     2.02384656     2.23953601     0.00000000     0.00000000     0.00000000
Ti      0.00000000     0.00000000     0.00000000     0.00000000     0.00000000     0.00000000
O       1.72800900     0.78883572     0.87290517    -8.38540205     3.58578136     4.72271280
O       2.75719304     3.25885739     3.60616681     8.38540205    -3.58578136    -4.72271280
O       0.51458741     1.23498732     3.11244216     8.38315567    -3.58351416     4.71923641
O       1.17196512     2.81270597     1.36662987    -8.38315567     3.58351416    -4.71923641
