# total energy = -19959.89794940 eV

CRYSTAL
PRIMVEC
        7.60600008     0.00000000     0.00000000
        0.00000000     7.60600008     0.00000000
       -1.89786986    -1.89786986     4.85670466
PRIMCOORD
24 1
Ti      3.81653798     6.53524902     1.21552501    -0.40153730    -0.66595530     1.47820180
Ti      3.74419400     2.77499301     1.11571800    -0.22327237     0.87538819     1.23709831
Ti      0.10375203     6.67596900     1.25739701    -0.45428427     1.36930655     0.04539876
Ti     -0.05081599     3.02866799     1.22808599     1.34637770    -1.87493577    -0.94387957
Ti      5.73536120     2.95098223     3.62792979     0.15545487    -1.75039740    -1.66640662
Ti      5.70693121    -0.97299080     3.63546379    -0.29596725     1.72911843     0.88098548
Ti      1.95665521     2.86459521     3.61205680    -0.16961522    -1.81094896     0.39036637
Ti      1.83925121    -1.12091077     3.76057881     0.31656797     1.38263001    -1.10843435
O       3.68642700     4.65712599     0.73992399     0.96851924     1.97699703     0.45183247
O       3.61121102     0.82455002     0.82364201     0.51618078    -0.23092474     0.55570327
O      -0.02051599     4.82510500     0.62805402    -0.13313691     0.11742567     1.47300380
O      -0.06443199     0.98932200     0.74960498     0.35141388    -0.20765522     0.63648119
O       5.82519825     4.79585621     4.04225880    -0.12630189    -0.18624435     0.25910019
O       5.89211621     0.97690423     3.86879080    -0.82885198     0.50312677     1.05638209
O       1.70128824     4.65011524     3.98636181     0.70471470     0.68651694     1.77946116
O       1.81693025     0.85724624     4.15277282     0.42042643     0.29251966    -1.83732771
O       3.79832921     2.84122420     3.01632583     1.87800335    -0.47041152     2.93844984
O       3.68721024    -1.05000678     3.27398483     1.25829655     0.01252539    -0.41224543
O       0.04037824     2.91298122     3.11025982    -0.38609936    -0.35027180     0.81385473
O       0.03176820    -0.91465578     3.28034083    -0.50406805    -0.32546501    -0.79644398
O       5.70462701     6.56364198     1.74126600    -0.75075957    -0.04268316    -1.66791021
O       5.82632598     3.02997702     1.61497102    -2.26863428    -0.10258165    -0.90013249
O       1.88021402     6.53633098     1.71980198    -0.04540287     0.04616083    -0.92868563
O       1.97987498     3.24622398     1.84271002    -1.32802387    -0.97324030    -3.73485423
