# total energy = -39036.50197354 eV

CRYSTAL
PRIMVEC
        7.60600008     0.00000000     0.00000000
        0.00000000     7.60600008     0.00000000
       -3.79573973    -3.79573973     9.71340985
PRIMCOORD
46 1
Ti      1.84798644     4.87117946     6.00187265    -0.03519456    -1.44699477     2.26341674
Ti      3.92510399     6.84677398     1.21304698    -1.56412527    -1.29761696     0.08229256
Ti      1.92472042     0.72357644     6.08032762     0.51406604     1.72955140     1.20911647
Ti      4.04008198     2.74236802     1.22404302    -1.01635797     0.86748564     1.80154051
Ti     -1.96633355     4.62973747     6.14201863     0.17576993    -0.34467296    -0.90110489
Ti     -0.06165100     6.73335198     1.19988301     0.57872571     1.21047247    -0.20384356
Ti     -1.90558358     0.88214043     6.07348864    -0.48380338     0.54279710    -0.67660970
Ti      0.09350700     2.99647798     1.20247698     0.73283384    -0.73891501     0.12451369
Ti      3.81738842     1.06815142     8.54345563    -0.07012121    -0.37454585    -1.21965003
Ti      5.74229099     2.83937298     3.60938298    -0.09186169    -0.53915796     1.62467889
Ti      3.67138445    -2.80086756     8.43504462     0.23545966    -0.22496595     1.15044979
Ti      5.63924600    -1.04127800     3.68749203     0.38683650     0.42243755     0.65235211
Ti     -0.00678358     0.95461946     8.41313562     0.08052955     0.74898371     1.01935151
Ti      1.89820198     2.82787898     3.64579201     0.11654995    -2.67530145    -1.45236144
Ti     -0.07776254    -2.83114655     8.41740561     0.23938753    -0.82987656     0.49412970
Ti      1.83289902    -0.92591202     3.48384398     0.14148297     1.21018014     0.52271112
O       1.94810646    -0.98286853     5.63548662    -0.17824128    -1.11784665    -0.96891853
O       3.94886902     0.99228000     0.92618899    -0.28927827     0.10807739    -1.26974619
O      -2.05549256     2.80098244     5.57542362     0.36684873     0.33665266     0.83631075
O      -0.02296799     4.90034501     0.78426100     0.22352074    -1.54638594     0.59239936
O      -2.04968256    -1.10364255     5.70782663     0.73199103     1.30933786    -0.26289591
O      -0.21684101     0.92557700     0.70085098     0.49070833     1.00879250     0.07508730
O       3.71079847     2.87700045     8.82721761    -0.42743577     0.73836582     0.22281394
O       5.74026001     4.71748300     4.01851399    -0.22857656     0.32686138     0.05720681
O       3.89750644    -0.82067856     9.01570261     0.07864288    -1.26306929    -0.68477630
O       5.74930201     0.95929601     4.13797099     0.16311393    -1.48130127    -0.12616254
O       0.12828447     2.90236645     8.98097160    -0.24685222    -0.94025303     0.09411398
O       2.01839999     4.49214302     4.19216202    -0.03185238     2.74466856    -0.44843707
O       0.01801044    -0.90275157     9.05768960    -0.63389261     0.14603666    -1.04201939
O       1.71338502     0.95506497     4.15575198     0.65545851     0.07336620    -0.40728012
O       1.81349647     0.71434547     8.14477460     1.87148869     0.84284032    -0.32657162
O       3.87926999     2.68699798     3.21370498    -0.04386329     0.45323758    -0.21764036
O       1.80048442    -2.96510253     8.01057461     0.56525364     0.94553074    -0.08453533
O       3.81089097    -0.90203702     3.24946302    -1.13427703    -0.28474670    -0.40784628
O      -1.92588657     1.22825247     8.07896363     0.38912529    -0.81890052     0.14409496
O       0.01300702     2.90538202     3.28450302     0.67374781     0.01070685    -0.07904448
O      -1.96360358    -2.96712356     8.13565963     0.69112127     0.48374193    -0.36720689
O      -0.04618098    -0.82183799     3.27038399     0.53903661    -0.94076417    -0.62641404
O       3.79381644     4.68727242     6.49232963    -1.70056091    -0.07448052    -0.17591571
O       5.67652902     6.58281798     1.60584901     0.15195045    -0.48362314     0.58618911
O       3.85661845     0.92525743     6.47764263    -1.82414875    -0.00022806     0.23201489
O       5.87541400     2.79720898     1.66554999    -1.50074524     0.73037843    -1.04831654
O      -0.03773653     4.46865544     6.36803462     0.48971692     0.76359890     0.86252521
O       1.83347900     6.82714198     1.44835702     0.94399322    -0.60762209     1.85090931
O       0.04240345     0.94672848     6.55393062    -0.65350576     0.04120220    -1.53011677
O       1.95021603     2.86774598     1.78069901    -0.07266429     0.23596437    -1.97080607
