# total energy = -19516.75220158 eV

CRYSTAL
PRIMVEC
        5.93400000     0.00000000     0.00000000
        0.00000000     9.29699974     0.00000000
        0.00000000     0.00000000     4.64899994
PRIMCOORD
23 1
Ti      4.53501400     7.02432501     2.24117001    -0.95679603    -0.10668617     0.62012177
Ti      4.49544498     2.29068502     2.35286800    -0.49447063    -0.35355047     0.03669351
Ti      1.42586000     7.02722601     2.25076902     0.48123484     1.48306479    -0.39026147
Ti      1.45669400     2.32326302     2.38692299    -0.10011597    -1.12644468     0.64459046
Ti      2.86658301     4.44362102     0.26208699     0.08522413     1.29946636    -0.73202008
Ti      3.06389601     9.25483099     0.00377102    -0.64992781    -0.38614101    -1.29452598
Ti      5.80085599     4.52638899     4.51606898     0.80586091     0.49684479     0.90278639
Ti      0.04746201     0.07533002     0.11709602     0.53074505    -0.00338692    -1.64179319
O       4.46519700     5.46949298     1.10573502    -0.58100577    -0.19780790    -0.75101386
O       4.52563698     0.94633101     0.94132298    -0.31962964     0.20817330     0.09227873
O       1.52099501     5.64678598     0.66699702    -0.28726072     0.45986100     1.26743734
O       1.61924301     0.75869899     0.85092400    -1.12154750     1.50409128     1.47570192
O       4.56745500     8.59461998     3.66841698    -0.34540727    -1.53374151    -0.13143716
O       4.23926599     3.70409602     3.72768198     0.84297814     1.28027975    -0.31768897
O       1.47223599     8.61263799     3.52759001     0.61218606    -1.35536988     0.40325480
O       1.40918801     3.73896801     3.63543702     0.65880121     0.96743115     0.63017530
O       3.02777998     1.45459099     3.14897400    -0.10708931    -0.08190998     0.66038912
O       0.13065201     6.27453498     3.24399699    -1.29131364    -1.98347904     0.80159056
O       5.88539602     1.63245001     3.37890602     0.03775255    -0.78551267    -0.36525568
O       2.98480200     7.91750699     1.38302898     0.73568956    -0.94743207     0.13794128
O       2.78378799     3.01292798     1.25953700     1.46419520     0.47317906     0.41770980
O       5.84852100     7.94194101     1.46337798     1.24893851     0.61331683    -1.65160272
O       0.14415497     3.27087702     1.38413602    -1.24904135     0.07575424    -0.81507214
