# total energy = -78964.80696121 eV

CRYSTAL
PRIMVEC
       10.35150501     0.00002646     0.00000000
        0.00002858    11.01713167     0.00000000
        0.00000000     0.00000000     9.26345890
PRIMCOORD
94 1
Ti      7.17205570     8.68925304     3.27381544     0.03844546     0.03933404     0.04048795
Ti      7.05943974     3.31558394     3.43641958     0.05639383     0.03028015     0.05208388
Ti      1.80856496     8.77629890     3.47646555    -0.02850943    -0.07807749     0.02921006
Ti      1.83567363     3.40930116     3.50017967    -0.01455399    -0.02329240    -0.06430126
Ti      8.36208110     7.68184728     5.74707377     0.01061583     0.04331616     0.01237601
Ti      8.52368894     2.20494206     5.81964061    -0.03245968     0.00091994     0.00473983
Ti      3.34996105     7.64684414     5.80911870    -0.04431452     0.02859042    -0.10003549
Ti      3.21345156     2.21442373     5.80224142    -0.11801265     0.07177391     0.00838257
Ti      9.75288602     7.68197302     1.11533696    -0.01029496     0.04255177     0.01109843
Ti      9.59159863     2.20506798     1.18785265     0.03217094     0.00140768     0.00481285
Ti      4.41395450     7.64661176     1.17748605     0.04314853     0.02818650    -0.10055280
Ti      4.55019467     2.21453804     1.17059546     0.11725752     0.07145870     0.00674452
Ti      5.95495448     8.77631453     8.10820821     0.02931727    -0.07796770     0.02846161
Ti      5.92792857     3.40951878     8.13191890     0.01444986    -0.02474893    -0.06353790
Ti      0.59171129     8.68917544     7.90552285    -0.03651019     0.04062576     0.04028792
Ti      0.70448810     3.31554735     8.06819515    -0.05646145     0.03159630     0.05228392
Ti      7.04035800     6.05958918     1.17369557     0.04083325    -0.02226473     0.05360829
Ti      7.02765074     0.54018305     1.20692270     0.03900725    -0.00835532    -0.01069374
Ti      1.89125266     6.04014962     1.22265329     0.07101595    -0.05276703     0.01193147
Ti      1.90686702     0.86111262     1.33754456    -0.01979236    -0.03479115    -0.14472179
Ti      8.47131756    10.49074426     8.08206815     0.01197980    -0.03656033    -0.04499844
Ti      8.51683813     4.95286666     8.06048844     0.07334614     0.02198217    -0.10572663
Ti      3.50013678    10.43377713     7.93794098     0.06672889    -0.04814958    -0.00305550
Ti      3.28035854     4.93901101     8.08191757     0.06945118     0.02108691     0.00776216
Ti      5.87228105     6.04011123     5.85428290    -0.06905497    -0.05392145     0.01209473
Ti      5.85667623     0.86132261     5.96922645     0.01935707    -0.03465823    -0.14412067
Ti      0.72345967     6.05959658     5.80541465    -0.04007066    -0.02206933     0.05461385
Ti      0.73618493     0.54035700     5.83874931    -0.04075894    -0.01040552    -0.00955937
Ti      9.64412589    10.49077660     3.45043452    -0.01255367    -0.03683929    -0.04414457
Ti      9.59837503     4.95284828     3.42882378    -0.07379814     0.02347495    -0.10468302
Ti      4.26412589    10.43385435     3.30604718    -0.06472600    -0.04848871    -0.00364377
Ti      4.48312753     4.93897868     3.45009599    -0.06873101     0.02019937     0.00861371
O       6.75336431     7.47860722     4.72212327     0.03632533    -0.00849776     0.02465560
O       6.84687885     1.90120736     4.68904142    -0.02652557    -0.04243710     0.12067863
O       1.61751751     7.43390937     4.75224709    -0.05831367     0.03337010     0.01368084
O       1.67166127     1.89637740     4.70580158    -0.01919458    -0.07966309    -0.03651713
O       8.60855993     9.12517731     4.55232788    -0.00552993     0.05246415    -0.03656059
O       8.71436316     3.58449213     4.52607651     0.01802113    -0.00750865     0.00748603
O       3.49563498     9.11424231     4.55034280     0.06117659     0.03299446    -0.01365359
O       3.56338459     3.55175791     4.53075563     0.07150960     0.04474724    -0.05638843
O       6.14613297     7.43393400     0.12047981     0.05839286     0.03235606     0.01486201
O       6.09181400     1.89640081     0.07408635     0.01947354    -0.07943915    -0.03647368
O       1.01021837     7.47859106     0.09039800    -0.03726198    -0.00854506     0.02498059
O       0.91660546     1.90112286     0.05735026     0.02680273    -0.04231780     0.12020786
O       9.50653172     9.12521580     9.18404269     0.00606575     0.05164654    -0.03636621
O       9.40073963     3.58455173     9.15775924    -0.01720326    -0.00848387     0.00769969
O       4.26798636     9.11426066     9.18197811    -0.06032170     0.03308574    -0.01290077
O       4.20015791     3.55179389     9.16255678    -0.07219378     0.04531391    -0.05660054
O       8.72982441     6.35229840     0.06698330    -0.07463864    -0.10394897     0.00903615
O       8.68890311     0.83396224     0.09916943     0.05554922     0.00136937    -0.02120929
O       3.55937998     6.34978755     0.09441487     0.06399221    -0.00467864     0.02416735
O       3.33032755     0.67607967     0.07596398    -0.13905122    -0.12733187     0.01555878
O       6.84644776    10.16841086     9.19154220     0.05392454    -0.02515671    -0.03588130
O       6.82017739     4.67187280     9.19958697    -0.00046074     0.06937713     0.05330336
O       1.65501017     4.67787555     9.16549759    -0.03203956     0.00684119    -0.03010532
O       9.38537014     6.35230316     4.69874964     0.07419255    -0.10419888     0.00873430
O       9.42610161     0.83393006     4.73094943    -0.05486325     0.00143596    -0.02162041
O       4.20421311     6.34977860     4.72617724    -0.06423518    -0.00501622     0.02346544
O       4.43322469     0.67609732     4.70770359     0.13831923    -0.12697038     0.01575675
O       6.10857472     4.67792461     4.53375844     0.03141272     0.00677332    -0.03049895
O       0.91715122    10.16837976     4.55984081    -0.05355353    -0.02481938    -0.03646417
O       0.94347565     4.67185870     4.56782065     0.00047874     0.06852867     0.05250580
O       5.40172646     9.00305200     2.67752765     0.07806643    -0.02009318     0.07201817
O       5.35948767     3.35866157     2.45133884     0.09666529     0.03524084     0.06246292
O       0.15722601     8.83303313     2.52311558     0.01298793     0.09051058    -0.01561020
O       0.20679013     3.35429298     2.49233666    -0.03234218    -0.03424325     0.01078835
O      10.10510005     7.60245977     6.76124683     0.03133327    -0.06061661    -0.08938289
O      10.18316097     2.14769001     6.76070902     0.03018399     0.02312657     0.04635418
O       4.96482385     7.64424623     6.80632224     0.00011107     0.01686336    -0.07596636
O       4.96143364     2.18239179     6.79546637    -0.03807342     0.08699254     0.03842978
O       8.01017661     7.60244915     2.12949525    -0.03240183    -0.06060992    -0.08879848
O       7.93192902     2.14765590     2.12895561    -0.02909333     0.02374440     0.04612304
O       2.79881938     7.64421053     2.17450737    -0.00020235     0.01711095    -0.07567248
O       2.80211860     2.18231274     2.16365094     0.03656753     0.08675985     0.03908541
O       7.60644609     8.83304375     7.15487678    -0.01313011     0.09030000    -0.01546391
O       7.55678019     3.35432316     7.12410781     0.03266459    -0.03424171     0.01047853
O       2.36213224     9.00319037     7.30928499    -0.08017474    -0.02052538     0.07237761
O       2.40406955     3.35872400     7.08304868    -0.09624928     0.03405222     0.06152472
O       5.38655077     6.17278005     2.16762018     0.03806982    -0.02671866    -0.00753745
O       5.32828659     0.57664047     2.10159118    -0.08915201     0.05378647    -0.02108511
O       0.22786995     6.08823428     2.11813859    -0.04681286     0.03184595     0.01942546
O       0.16552277     0.58156303     2.12405668    -0.04525195     0.01503762     0.00679311
O      10.24286299    10.42244155     7.20525375    -0.01446863    -0.03942968     0.04000124
O      10.15805894     4.89587464     7.11324937    -0.08547044     0.03249439     0.05526871
O       5.08999619    10.38496403     7.03341483    -0.01236470    -0.02810654     0.12243212
O       4.97815162     4.88857987     7.13337841    -0.00836483     0.03023361    -0.04927084
O       7.53568287     6.08829290     6.74986840     0.04654675     0.03161815     0.01964144
O       7.59801346     0.58159153     6.75589865     0.04547049     0.01596964     0.00542529
O       2.37711151     6.17277132     6.79940077    -0.03836602    -0.02657750    -0.00788892
O       2.43525559     0.57659785     6.73341222     0.08939266     0.05502266    -0.02210918
O       7.87228714    10.42246072     2.57348942     0.01531915    -0.03998504     0.04022878
O       7.95715210     4.89581410     2.48152471     0.08520896     0.03325775     0.05480360
O       2.67394780    10.38496764     2.40183524     0.01221660    -0.02769105     0.12271700
O       2.78542808     4.88850419     2.50153884     0.00794805     0.03015314    -0.04895022
