# total energy = -19517.37916861 eV

CRYSTAL
PRIMVEC
        5.93400000     0.00000000     0.00000000
        0.00000000     9.29699974     0.00000000
        0.00000000     0.00000000     4.64899994
PRIMCOORD
23 1
Ti      4.61552398     7.21348799     2.16825002    -0.05666148    -1.48967870     0.10862375
Ti      4.44113298     2.19282400     2.37257001    -0.47924249    -0.40325943     0.96102164
Ti      1.46802400     6.99838300     2.25959501    -1.03687204     0.01816074     0.66730693
Ti      1.43808802     2.42458999     2.27114901    -0.25543225    -1.53164272     0.72972306
Ti      2.99047499     4.41487002     0.06436298     0.42580749     0.28313281     0.67418078
Ti      3.03939399     9.16043502     0.01871700    -2.55681418     2.00514882     0.19574047
Ti      5.91090300     4.73094500     0.06642900     0.08522207     0.64303468    -0.79682322
Ti      0.01028101     0.08071101     4.63295899     1.68721328     0.85378911    -0.18763815
O       4.31983598     5.74305502     0.87556699     0.45890635    -0.86089565    -0.41862280
O       4.37974001     0.89101802     1.02324200     0.22032331    -1.26340174    -1.99317493
O       1.64017901     5.68892601     0.93312100    -0.59303031    -1.21425483    -0.57891006
O       1.42219101     0.82683400     0.95442298    -0.04659535     0.92548847    -0.51926044
O       4.37534498     8.39507099     3.75905902     1.07457085    -1.16114404    -0.44198797
O       4.32526603     3.70844702     3.56679701     0.15220062     1.65674570     2.24362644
O       1.37375298     8.33768299     3.71207802     0.84887471    -0.08980121     0.99203661
O       1.48159999     3.66832602     3.87418200    -0.63369849     0.21703770    -0.95978674
O       2.95503599     1.42133601     3.27882002    -0.62628214    -0.36738224     0.19599784
O       5.83776198     5.92067802     3.21516498     0.08537531     1.00245215    -0.21060685
O       0.00638198     1.28055402     3.09361402     0.07552541     0.36768614     1.26125538
O       2.96309499     7.97824802     1.58542203     0.34962234    -0.80406448    -0.00676046
O       2.93472199     3.14239501     1.38369802     0.08199354     0.39683321    -0.13038609
O       0.14831701     7.98512098     1.44030400    -0.53143231    -0.10820003    -0.58789813
O       5.79685398     3.23907400     1.51848301     1.27042522     0.92421603    -1.19765758
