# total energy = -19519.98007181 eV

CRYSTAL
PRIMVEC
        5.17575250     0.00001323     0.00000000
        0.00001429     5.50856584     0.00000000
        0.00000000     0.00000000     9.26345890
PRIMCOORD
23 1
Ti      1.84360987     3.36652980     3.38172443     0.09121326     0.05699726     0.07378632
Ti      3.35439429     2.18312426     5.77143361    -0.02168443     0.01750356     0.02505824
Ti      4.55532933     1.95157118     1.40631216     0.01332115    -0.06471649     0.05603130
Ti      0.87124233     3.28811290     7.94398697    -0.03940114     0.01811703    -0.04387281
Ti      1.98605655     0.53797608     1.21323370     0.01698703     0.00945498     0.10796863
Ti      3.18258156     5.15080296     7.93771450     0.08222082     0.04568569    -0.01469900
Ti      0.66560447     0.70264465     5.67211270     0.03828580    -0.01395390    -0.02100129
Ti      4.49572116     4.85363722     3.53276487     0.02412236    -0.02343613     0.07057732
O       1.57691112     1.92839726     4.65826663    -0.05680495    -0.01450617     0.06859089
O       3.52960397     3.54697711     4.52341747     0.07418355     0.05761690    -0.03747950
O       0.77713158     2.08973451     0.10884941    -0.05750300    -0.02217706     0.03943791
O       3.52265558     0.91493141     0.07246866    -0.00189593    -0.10045844    -0.10724718
O       1.72623951     4.68308183     9.15560009     0.04442122     0.01881303     0.03905559
O       4.11472037     0.77661326     4.73162376    -0.00813035    -0.07354463    -0.10296321
O       0.95985926     4.63886729     4.57643561     0.02003224    -0.00722917     0.06143859
O       0.16962953     3.35995463     2.43340851    -0.05089783    -0.00181417    -0.04493647
O       4.96030202     2.11570889     6.81566152     0.01044820     0.04201647     0.02115582
O       2.77677180     2.16310237     2.11003378    -0.02922574    -0.02569330    -0.03725401
O       2.52359199     3.39977212     7.15637664    -0.00806555    -0.04434538    -0.02234161
O       0.23151814     0.54540077     2.18898031     0.04987556     0.04569161    -0.04977195
O       4.92929205     4.74883462     7.38784638    -0.10213197     0.04467653    -0.00462285
O       2.32920353     0.70596129     6.76124399    -0.04550366    -0.00056950    -0.02303889
O       2.80121789     4.88231873     2.45392729    -0.04386586     0.03587127    -0.05387209
