# total energy = -4988.59445085 eV

CRYSTAL
PRIMVEC
        3.49713019     0.00000000     0.00000000
        0.00000000     4.05004980     0.00000000
        0.00000000    -0.00006390     4.87443907
PRIMCOORD
6 1
Ti      1.74856515     2.02499279     2.43721954     0.00000000     0.00000000     0.00000000
Ti      0.00000000     0.00000000     0.00000000     0.00000000     0.00000000     0.00000000
O       1.74856515     0.78928254     0.94995636     0.00000000     0.10439788     0.15297864
O       1.74856515     3.26070299     3.92448265     0.00000000    -0.10439788    -0.15297864
O       0.00000000     1.23568443     3.38717698     0.00000000    -0.10473495     0.15289842
O       0.00000000     2.81430115     1.48726209     0.00000000     0.10473495    -0.15289842
