# total energy = -4987.39711663 eV

CRYSTAL
PRIMVEC
        3.82026042     0.00000000     0.00000000
        1.63627331     3.45210071     0.00000000
       -2.72830303    -1.72607324     5.01023284
PRIMCOORD
6 1
Ti      1.22710848     2.58920840     1.25255816     0.00054765    -0.00054765     0.00000000
Ti      1.50112248    -0.86318072     3.75767437    -0.00054765     0.00054765     0.00000000
O       0.40910801     0.86302065     0.81612593    -0.00010387    -0.00014681    -2.20799479
O       2.31912281     0.86300691     4.19410665     0.00010387     0.00014681     2.20799479
O      -0.40907359    -0.86299891     3.32124219    -0.00014681    -0.00010387    -2.20799479
O       3.13730435     2.58902643     1.68899039     0.00014681     0.00010387     2.20799479
