# total energy = -19947.52642095 eV

CRYSTAL
PRIMVEC
        6.45933924     0.00000000     0.00000000
        0.00002542     4.58312678     0.00000000
        0.00000000     0.00000000    10.03541402
PRIMCOORD
24 1
Ti      2.34121496     2.71595667     3.72306702     0.28557845     0.61722851    -0.52674184
Ti      4.11814980     1.86717011     6.31234711    -0.28557845    -0.61722851     0.52674184
Ti      5.57077323     1.86717171     1.29459992     0.28658632    -0.61729073     0.52773326
Ti      0.88859154     2.71595529     8.74081426    -0.28658632     0.61729073    -0.52773326
Ti      2.34120225     0.42439339     1.29464015     0.28557845     0.61722851     0.52674184
Ti      4.11816251     4.15873355     8.74077403    -0.28557845    -0.61722851    -0.52674184
Ti      0.88857882     0.42439168     6.31230682    -0.28658632     0.61729073     0.52773326
Ti      5.57078594     4.15873526     3.72310725     0.28658632    -0.61729073    -0.52773326
O       2.04443065     1.61379687     5.12099497     1.17779657    -0.01203585     0.30882894
O       4.41493411     2.96932996     4.91441915    -1.17779657     0.01203585    -0.30882894
O       1.18529476     1.61381534     0.10332022    -1.17735228    -0.01241098     0.30854432
O       5.27407011     2.96931149     9.93209358     1.17735228     0.01241098    -0.30854432
O       4.41492146     0.67776652     0.10328764    -1.17779657     0.01203585     0.30882894
O       2.04444331     3.90536026     9.93212616     1.17779657    -0.01203585    -0.30882894
O       5.27405740     0.67774810     5.12102750     1.17735228     0.01241098     0.30854432
O       1.18530731     3.90537878     4.91438657    -1.17735228    -0.01241098    -0.30854432
O       0.23469832     2.78771751     2.71081571    -0.66843848     0.16712125     0.82260754
O       6.22466644     1.79540932     7.32459842     0.66843848    -0.16712125    -0.82260754
O       3.46437517     1.79536659     2.30692328    -0.66807724    -0.16666283    -0.82261653
O       2.99498960     2.78776024     7.72849068     0.66807724     0.16666283     0.82261653
O       0.23468561     0.49615406     2.30689119    -0.66843848     0.16712125    -0.82260754
O       6.22467915     4.08697271     7.72852271     0.66843848    -0.16712125     0.82260754
O       2.99497695     0.49619680     7.32463040     0.66807724     0.16666283    -0.82261653
O       3.46438782     4.08693003     2.71078368    -0.66807724    -0.16666283     0.82261653
