# total energy = -19961.05033134 eV

CRYSTAL
PRIMVEC
        7.60600008     0.00000000     0.00000000
        0.00000000     7.60600008     0.00000000
       -1.89786986    -1.89786986     4.85670466
PRIMCOORD
24 1
Ti      3.65675900     6.74474199     1.28500800     0.54852449    -1.58437632     0.94944319
Ti      3.81235399     2.95639301     1.24379699     0.06936865     0.65093466    -0.93619840
Ti      0.07772598     6.56648302     1.18508801    -1.62509078    -0.34900784    -0.75293396
Ti      0.08382099     2.71111301     1.07878598    -0.59760404     0.81174436     1.37714610
Ti      5.72889921     2.78229222     3.59809584     0.92614358     0.06409994     0.14530389
Ti      5.73491923    -1.06963180     3.55093879    -0.29944441     0.23085712    -0.35891816
Ti      1.95216324     2.99702324     3.63783181    -1.04125937    -0.96232030     0.90799930
Ti      1.80673025    -0.93680180     3.74627081     0.57723241     0.89045100    -0.29883043
O       3.59092803     4.80651903     0.76873098     0.79482907     0.05420890     0.33476084
O       3.75572102     0.92284702     0.89517402    -0.11729248     1.32887568     0.00516869
O       0.19959402     4.64635199     0.72634901    -0.74286217     0.20831471    -0.54175786
O       0.14181299     0.85764900     0.81584601    -0.21733183     0.99334428    -0.34331593
O       5.81915923     4.74543922     4.04168279    -0.35081867    -0.65695053     0.08883833
O       5.62584220     0.82848424     3.92894682    -0.18059204     0.88175733     0.76640037
O       1.71121624     4.82937922     4.21803080     0.22345414    -0.41788772    -1.45851383
O       1.92071323     1.01162725     4.18194683     0.14814136    -0.43267928    -1.06595380
O       3.81736424     3.05407622     3.17375082    -0.40114315    -0.15214946     1.69291702
O       3.67475124    -1.06316678     3.22258383     0.75599923     0.21682815     0.18975185
O      -0.04339280     2.90110225     3.11006979     0.36373230    -0.47979528     0.23908929
O       0.00980825    -0.78582075     3.17271581     0.20978924    -0.35522554     1.00854516
O       5.81162501     6.50716199     1.66791801    -1.79365108    -0.00878649    -0.42976494
O       5.65335302     2.87256298     1.64697799     0.93151385    -0.27244191    -0.98057334
O       1.79774699     6.58003298     1.65264601     2.19238511     0.25058289     0.62987423
O       1.90620801     2.98265402     1.74748901    -0.37402340    -0.91037860    -1.16847760
