# total energy = -4988.14765959 eV

CRYSTAL
PRIMVEC
        4.14672668     0.00000000     0.00000000
        0.20719796     4.14154696     0.00000000
       -2.17699914    -2.07080850     5.29380116
PRIMCOORD
6 1
Ti      0.15523095     3.10631748     1.32345015    -0.00160951     0.00160951     0.00000000
Ti      2.02169402    -1.03557953     3.97035073     0.00160951    -0.00160951     0.00000000
O       0.05184311     1.03537996     0.86231692    -0.00051962    -0.00167816    -0.96770985
O       2.12508169     1.03535788     4.43148400     0.00051962     0.00167816     0.96770985
O      -0.05182266    -1.03536051     3.50921750    -0.00167816    -0.00051962    -0.96770985
O       2.22874746     3.10609830     1.78458348     0.00167816     0.00051962     0.96770985
