# total energy = -19929.77710008 eV

CRYSTAL
PRIMVEC
        6.12338205     0.00000000     0.00000000
        1.91214701     6.23030328     0.00000000
        0.00000000     0.00000000    11.08772090
PRIMCOORD
24 1
Ti      3.35256799     3.69207198     4.11346537    -0.02663021    -2.18440928     0.79924571
Ti      4.68296097     2.53823144     6.97425559     0.02663021     2.18440928    -0.79924571
Ti      6.06003255     2.53823358     1.43035081    -0.36659882    -0.71669142     0.03813436
Ti      1.97549651     3.69207008     9.65737027     0.36659882     0.71669142    -0.03813436
Ti      2.39649463     0.57692045     1.43039526    -0.02663021    -2.18440928    -0.79924571
Ti      5.63903436     5.65338315     9.65732582     0.02663021     2.18440928     0.79924571
Ti      1.01942302     0.57691812     6.97421113     0.36659882     0.71669142     0.03813436
Ti      7.01610597     5.65338548     4.11350983    -0.36659882    -0.71669142    -0.03813436
O       2.61138852     2.19379574     5.65797911     1.79494306     2.08160549    -0.72977345
O       5.42414045     4.03650774     5.42974185    -1.79494306    -2.08160549     0.72977345
O       1.79694492     2.19382088     0.11415432    -0.52550051    -0.21578094     1.15941600
O       6.23858412     4.03648266    10.97356633     0.52550051     0.21578094    -1.15941600
O       4.46806706     0.92135602     0.11411835    -1.79494306    -2.08160549    -0.72977345
O       3.56746191     5.30894746    10.97360230     1.79494306     2.08160549     0.72977345
O       5.28251073     0.92133094     5.65801508     0.52550051     0.21578094     1.15941600
O       2.75301819     5.30897261     5.42970588    -0.52550051    -0.21578094    -1.15941600
O       1.38555284     3.78962368     2.99507003     0.51029732     1.89690971     1.89060279
O       6.64997612     2.44067980     8.09265093    -0.51029732    -1.89690971    -1.89060279
O       4.03323277     2.44062171     2.54882571     0.80733106     1.69485718     0.88367229
O       4.00229620     3.78968178     8.53889506    -0.80733106    -1.69485718    -0.88367229
O       0.42947939     0.67447197     2.54879029     0.51029732     1.89690971    -1.89060279
O       7.60604952     5.55583152     8.53893048    -0.51029732    -1.89690971     1.89060279
O       3.04622281     0.67453006     8.09268628    -0.80733106    -1.69485718     0.88367229
O       4.98930616     5.55577342     2.99503462     0.80733106     1.69485718    -0.88367229
