# total energy = -19072.00443846 eV

CRYSTAL
PRIMVEC
        5.93400000     0.00000000     0.00000000
        0.00000000     9.29699974     0.00000000
        0.00000000     0.00000000     4.64899994
PRIMCOORD
22 1
Ti      4.47783201     6.96610001     2.51150597    -0.31275013    -1.76932844    -1.48829004
Ti      4.26204702     2.38565201     2.41105300     1.87061528    -0.15401248    -0.90323685
Ti      1.54465998     6.95593298     2.34544401     0.37579001     0.12966464     1.07111786
Ti      1.68650599     2.58183400     1.94519699    -3.21334510     0.47492330     0.83311050
Ti      2.90792001     4.44418200     4.45638800    -0.07412056     0.90073928    -0.66108152
Ti      2.96238902     9.23088201     0.06229998     1.13058544     0.92158862     0.89370602
Ti      5.79675698     4.58093600     0.19100002    -0.44144289    -0.28350228    -0.50105754
Ti      0.03768102     9.16123001     0.10701202    -0.18907745    -0.15125317     2.04797982
O       4.02690399     5.45180702     0.86820402     3.24422766     1.92612388     0.37805335
O       4.53874899     1.08477701     0.69482000     0.11297252    -1.53562176    -0.34494216
O       1.51673403     0.98420301     0.79952798    -0.26963092    -0.08666035    -0.16493530
O       4.59258198     8.21411899     3.75680001    -0.05397493     2.48709869     2.24339915
O       4.63247601     3.81425802     3.57002499    -1.23666380    -0.98056383     0.86070513
O       1.74179999     8.30486903     3.76757300    -2.33625458    -0.09779426     0.09905719
O       1.28313899     3.71692598     3.44433402     0.52268336     0.18646444     1.43985173
O       3.00179002     6.08322301     3.38401602    -1.04743208    -0.37757538    -1.22958452
O       2.78513803     1.53497000     3.14860802     0.45669520    -0.77671127     0.17468287
O       0.05909502     6.02209801     3.21630001     0.67284381     0.23487113    -0.24339640
O       3.09373700     8.05418300     1.64084398    -0.71377116    -0.35402175    -1.58187566
O       3.18037199     3.58578601     1.57418997    -0.95717424    -1.77471696    -1.32825501
O       0.04859599     8.04645003     1.63317101     0.40834044    -0.13947468    -1.71847045
O       5.72127699     3.04091400     1.28397102     2.05088465     1.21976187     0.12346262
