# total energy = -19959.72406245 eV

CRYSTAL
PRIMVEC
        7.60600008     0.00000000     0.00000000
        0.00000000     7.60600008     0.00000000
       -1.89786986    -1.89786986     4.85670466
PRIMCOORD
24 1
Ti      3.85381101     6.58676898     1.23354302     0.97190487     0.66911725    -2.08545289
Ti      3.73416398     2.79039302     1.23379798     2.91141340    -0.97878180    -0.29970178
Ti     -0.02082000     6.81214398     1.22576798    -0.83955163    -1.75812125    -0.68885381
Ti      0.12216798     2.90970000     1.23068901    -2.85262125     1.58872586     0.00354478
Ti      5.70123324     2.89559520     3.65241683    -2.32976846     1.83826694    -0.20573332
Ti      5.69099223    -0.77041979     3.67111383    -0.30654349    -1.59632655    -0.88470870
Ti      1.85543721     2.69691624     3.55363881     2.17891689     0.47956388     3.03019969
Ti      1.94514524    -1.02643178     3.52903683     0.16868114    -0.76377245     2.84143334
O       3.98838602     4.52827001     0.72334402    -1.67044094     2.17574544     0.23150607
O       3.96522499     0.82144798     0.69726897    -0.75184432     0.03145643     0.65470878
O      -0.08872101     4.83329301     0.80825702     1.18907266    -1.45403342     0.88237362
O      -0.17437200     1.03938302     0.80372801     0.74470462     0.69185095    -0.08894812
O       5.36373124     4.78330624     4.15658083     1.36228126     1.02676966    -0.28928367
O       5.49905525     1.07779123     4.10514480     1.17687971    -1.76002130     0.40239425
O       2.21343122     4.63291121     4.06273384    -1.58055129     0.04242630    -0.41628207
O       1.95242021     0.82050324     4.04881780    -0.90926454     0.39804703    -0.38210464
O       3.69924622     2.70055322     3.24570379    -0.09815627     0.16629207    -0.43281144
O       3.86994821    -0.83338776     3.14187281     0.02969317    -0.18496549     0.34221190
O      -0.12274975     3.02124623     3.20919279     2.38636926    -0.32010889    -0.35929637
O       0.02516524    -0.91509177     3.25383884    -1.32876049     0.01735392     0.29686508
O       5.72965800     6.66131100     1.57660800     0.27492533    -0.01329955     1.49632783
O       5.54798801     2.90983902     1.76245002     1.72198413    -0.60009441    -0.47816366
O       1.91079999     6.65469602     1.70213699     0.05771460    -0.16668005    -2.33779570
O       1.92719602     2.53283002     1.66065299    -2.50703811     0.47058893    -1.23242919
