# total energy = -19936.45212262 eV

CRYSTAL
PRIMVEC
        6.01137445     0.00000000     0.00000000
        0.63822937     6.36600713     0.00000000
        0.00000000     0.00000000    10.77254358
PRIMCOORD
24 1
Ti      2.55704830     3.77248996     3.99653693    -0.00772822    -1.32450943     0.74936115
Ti      4.09255570     2.59351721     6.77600702     0.00772822     1.32450943    -0.74936115
Ti      5.44443777     2.59351938     1.38969201     0.02643249     0.26571975    -0.42767977
Ti      1.20516625     3.77248811     9.38285212    -0.02643249    -0.26571975     0.42767977
Ti      2.23793375     0.58948646     1.38973523    -0.00772822    -1.32450943    -0.74936115
Ti      4.41167027     5.77652097     9.38280890     0.00772822     1.32450943     0.74936115
Ti      0.88605160     0.58948411     6.77596386    -0.02643249    -0.26571975    -0.42767977
Ti      5.76355235     5.77652325     3.99658014     0.02643249     0.26571975     0.42767977
O       2.12736945     2.24157934     5.49714667     1.52544250     1.57347638    -0.27303814
O       4.52223456     4.12442789     5.27539728    -1.52544250    -1.57347638     0.27303814
O       1.32781843     2.24160509     0.11090938    -1.07955262     0.78333752     0.38431245
O       5.32178565     4.12440221    10.66163432     1.07955262    -0.78333752    -0.38431245
O       4.20311999     0.94142414     0.11087445    -1.52544250    -1.57347638    -0.27303814
O       2.44648402     5.42458310    10.66166925     1.52544250     1.57347638     0.27303814
O       5.00267108     0.94139845     5.49718166     1.07955262    -0.78333752     0.38431245
O       1.64693287     5.42460879     5.27536235    -1.07955262     0.78333752    -0.38431245
O       0.60661440     3.87216655     2.90993284     0.40913003     0.40888963     0.79103438
O       6.04298955     2.49384069     7.86261110    -0.40913003    -0.40888963    -0.79103438
O       3.47412255     2.49378141     2.47637338     0.56889484     0.85275579     0.10949407
O       3.17548146     3.87222577     8.29617044    -0.56889484    -0.85275579    -0.10949407
O       0.28749983     0.68916279     2.47633894     0.40913003     0.40888963    -0.79103438
O       6.36210412     5.67684439     8.29620482    -0.40913003    -0.40888963     0.79103438
O       2.85636689     0.68922208     7.86264548    -0.56889484    -0.85275579     0.10949407
O       3.79323712     5.67678516     2.90989847     0.56889484     0.85275579    -0.10949407
