# total energy = -39035.20924188 eV

CRYSTAL
PRIMVEC
        7.60600008     0.00000000     0.00000000
        0.00000000     7.60600008     0.00000000
       -3.79573973    -3.79573973     9.71340985
PRIMCOORD
46 1
Ti      1.77492543     4.93934643     6.09961661     0.06305556    -0.58123511     0.02492403
Ti      3.81952598     6.69230301     1.38197798    -0.71959933    -1.06265044    -0.09133410
Ti      1.87170443     0.87173945     6.05064162    -0.28726741     0.13464795    -0.35126707
Ti      3.95513898     2.59111201     1.21314398    -1.25802813     0.34178793     1.68546879
Ti     -1.94211453     4.81884944     6.02308964    -0.96834440     1.51713758    -0.17397582
Ti      0.01244202     6.71216600     1.15843700     0.63147783    -0.86867555    -0.63286082
Ti     -1.90885257     1.17591144     5.96678560    -0.01816357    -1.66699258     0.47921267
Ti      0.08495898     2.83609499     1.10895099     1.18934134     0.68299375     1.79748691
Ti      3.75970445     0.92123843     8.58766664     0.12143170     0.11192170    -0.62367118
Ti      5.84647398     2.99423300     3.60153999    -0.87671771    -1.32262378    -0.91292142
Ti      3.72449644    -2.86754955     8.42239363     0.05203632     0.05650233     0.21168697
Ti      5.87531398    -0.95543799     3.59723502    -2.36541501     0.88434463     1.19802602
Ti     -0.01668157     0.91750646     8.42648761    -0.73746979    -0.76406478    -0.49941512
Ti      1.93982500     2.72519002     3.59340902     0.87471919     1.27220726    -1.85941170
Ti     -0.18898057    -2.88088254     8.54476661     0.36227166     0.41410409     0.41886140
Ti      1.83217198    -1.14629000     3.68242298     2.62072591     1.02408877    -0.14187558
O       1.67799143    -0.92670557     5.64143261    -0.26186927    -0.24770454    -0.28979737
O       3.62086501     0.77339001     1.09544898     0.49085257     3.11058038    -2.17263029
O      -1.61070654     3.00748344     5.55015065    -1.25641708    -1.43711607     0.22819912
O       0.11441601     4.79256901     0.87952101    -0.36470161    -0.14437341    -1.42124131
O      -1.73886755    -0.91557158     5.68758560    -0.23245712     0.41796486    -1.27296933
O       0.04664697     0.96338999     0.82273902    -0.05269452    -0.57947467    -0.42614817
O       3.62648043     2.81609146     8.87026465     0.26216726     0.85943680     0.26525387
O       5.55557202     4.78128600     3.93988798     0.07321785     1.69740231     0.56908973
O       3.98117445    -0.94279955     8.98924761    -0.24496014    -0.20777941    -1.60588823
O       5.58363201     1.05279697     3.98310801     0.98301461    -1.02923406     0.68688358
O       0.18182843     2.57383046     9.20145864    -0.65811292     0.48545300    -0.86443529
O       2.15695499     4.47946801     4.32225300    -0.88316012     1.16057326    -0.51650705
O      -0.42106957    -0.96161153     9.00168460     1.59374054     0.03647214     0.04247284
O       1.80831000     0.98799499     3.87862302    -0.07257636    -1.96012879     1.72721195
O       1.82545042     0.70677644     8.29566864     1.38396055    -0.06555441    -0.99793832
O       3.84785300     2.82828502     3.25804400     0.76901004    -0.11640108    -1.17079005
O       1.91147046    -2.67861756     7.96337364    -1.59608487    -0.42946823     2.03374644
O       3.71780700    -0.87129701     3.20461397     0.82563707    -0.94437734     1.70346960
O      -1.86413656     1.06472347     7.93798562    -2.28977673     0.24237670     0.26452908
O       0.03277502     2.97360101     3.16849599     0.46056188    -0.08503875     0.47130781
O      -2.00590458    -2.89168353     8.10004362     0.81615638    -0.64736648    -0.27361716
O       0.05252502    -1.18667898     3.34211798    -1.16476853     0.31949131    -0.90032353
O       3.75642646     4.86544344     6.40848260     0.31937895    -0.49270171     0.72044060
O       5.74009300     6.71962401     1.52388803     0.38449551    -0.39369826     1.78999214
O       3.64924548     0.77373546     6.43998664     1.36419185     1.30744141     0.45420508
O       5.85721400     2.96364602     1.55020200    -2.39648552    -0.24778219    -0.42793508
O      -0.14114353     4.71692143     6.42946363     2.08378630     0.04038742     1.42601276
O       1.86393500     6.59439998     1.59726602    -0.23643796    -0.64543506     0.33729955
O      -0.00560256     1.20254747     6.51138662     0.99895468    -0.09872731    -0.59367514
O       2.00305099     2.94254799     1.64514698     0.21732206    -0.07871230    -0.31515206
