# total energy = -19914.18402683 eV

CRYSTAL
PRIMVEC
        6.46292789     0.00000000     0.00000000
        2.33597178     6.46970930     0.00000000
        0.00000000     0.00000000    11.75402156
PRIMCOORD
24 1
Ti      3.72679532     3.83394364     4.36065818    -0.21687675    -2.11704713     0.62119444
Ti      5.07210458     2.63576549     7.39336351     0.21687675     2.11704713    -0.62119444
Ti      6.52553592     2.63576769     1.51630573    -0.10771024    -0.91752036     0.03896585
Ti      2.27336401     3.83394163    10.23771609     0.10771024     0.91752036    -0.03896585
Ti      2.55880959     0.59908916     1.51635286    -0.21687675    -2.11704713    -0.62119444
Ti      6.24009033     5.87062010    10.23766896     0.21687675     2.11704713     0.62119444
Ti      1.10537815     0.59908678     7.39331638     0.10771024     0.91752036     0.03896585
Ti      7.69352178     5.87062255     4.36070531    -0.10771024    -0.91752036    -0.03896585
O       2.86809291     2.27809455     5.99798724     1.83667594     2.09031330    -0.74919223
O       5.93080699     4.19161458     5.75603445    -1.83667594    -2.09031330     0.74919223
O       2.00848909     2.27812065     0.12101427    -0.42975208    -0.45113698     1.36960556
O       6.79041088     4.19158853    11.63300709     0.42975208     0.45113698    -1.36960556
O       4.76282124     0.95675997     0.12097613    -1.83667594    -2.09031330    -0.74919223
O       4.03607866     5.51294916    11.63304523     1.83667594     2.09031330     0.74919223
O       5.62242512     0.95673386     5.99802538     0.42975208     0.45113698     1.36960556
O       3.17647472     5.51297528     5.75599631    -0.42975208    -0.45113698    -1.36960556
O       1.65568353     3.93524384     3.17505447     0.58564712     2.34534318     2.28371330
O       7.14321637     2.53446529     8.57896722    -0.58564712    -2.34534318    -2.28371330
O       4.38136956     2.53440502     2.70199374     0.67224885     1.96791615     1.29595757
O       4.41753034     3.93530411     9.05202775    -0.67224885    -1.96791615    -1.29595757
O       0.48769778     0.70038923     2.70195618     0.58564712     2.34534318    -2.28371330
O       8.31120212     5.76931990     9.05206531    -0.58564712    -2.34534318     2.28371330
O       3.24954459     0.70044950     8.57900465    -0.67224885    -1.96791615     1.29595757
O       5.54935531     5.76925963     3.17501697     0.67224885     1.96791615    -1.29595757
