# total energy = -19518.47905337 eV

CRYSTAL
PRIMVEC
        7.60600008     0.00000000     0.00000000
        0.00000000     7.60600008     0.00000000
       -1.89786986    -1.89786986     4.85670466
PRIMCOORD
23 1
Ti      3.85178500     6.72263799     1.16119602     0.24068414     0.22937823    -0.04268933
Ti      3.76745002     2.89091500     1.17507798    -0.13595510    -0.54139714     0.56183741
Ti      0.02303699     6.58807197     1.18990701    -0.09635984     0.62798550     0.09423688
Ti     -0.02361797     2.71299201     1.26385001     0.58013699    -0.41234879    -0.65414828
Ti      5.51333023     2.84898723     3.84544381     1.12663777    -0.46514204    -1.43026871
Ti      5.67963625    -0.86227279     3.58766083    -0.39890243    -0.84886545     0.51980680
Ti      1.98970323     2.92010823     3.66881080     0.16764293    -0.22740722    -0.17629212
Ti      1.88451724    -0.92260080     3.50094683     0.55234233     0.53837403     0.92778086
O       3.87578398     4.77321600     0.79362998     0.32228713    -0.15433258    -0.51633556
O       3.82133498     1.00072699     0.69421398    -0.37750673     0.66109463     0.81245990
O      -0.09417402     4.57723197     0.86698099     0.23560004     2.23261080     0.22501455
O       0.23202300     0.88401801     0.74753801    -0.01567037    -0.34045841     0.34653650
O       5.66384020     4.68314923     4.06993081     0.55492937    -0.14603049     0.20933133
O       5.49302422     0.88363425     4.06209782     0.85238581     0.14448397     0.22898690
O       1.95664622     4.88731524     3.99065783    -0.74160644    -2.57238864     0.81229484
O       1.82848123     1.01018021     3.86838582    -0.24585206     0.26567013     1.05392257
O       3.82221023     2.73368025     3.33932081    -1.51573632     0.49230987    -1.52158044
O       3.83531721    -1.12523578     3.31807180     0.12489807     0.93111173    -1.11131116
O      -0.02535077    -0.92311876     3.13355679     0.65601259    -0.19985167     0.03136721
O       5.70688200     6.81701802     1.61054101     0.17575502    -0.45526901    -0.40756114
O       5.86127401     2.75071298     1.78787402    -1.10517008    -0.04986785     0.60777147
O       2.02316703     6.41659198     1.62574300    -1.35191920     0.72400415    -0.71556656
O       1.89662799     3.03859901     1.64726898     0.39536588    -0.43366376     0.14440555
