# total energy = -19919.04678114 eV

CRYSTAL
PRIMVEC
        6.29535875     0.00000000     0.00000000
        3.15304586     5.91189697     0.00000000
        0.00000000     0.00000000    11.65960719
PRIMCOORD
24 1
Ti      4.15025685     3.50338468     4.32563113     0.42324205    -2.67286147     0.49563637
Ti      5.29814794     2.40851245     7.33397619    -0.42324205     2.67286147    -0.49563637
Ti      6.71389540     2.40851456     1.50412595    -1.37470098    -1.31520229     0.69070167
Ti      2.73450958     3.50338284    10.15548143     1.37470098     1.31520229    -0.69070167
Ti      2.57373416     0.54743639     1.50417272     0.42324205    -2.67286147    -0.49563637
Ti      6.87467075     5.36446097    10.15543472    -0.42324205     2.67286147     0.49563637
Ti      1.15798659     0.54743411     7.33392942     1.37470098     1.31520229     0.69070167
Ti      8.29041830     5.36446318     4.32567783    -1.37470098    -1.31520229    -0.69070167
O       3.10276190     2.08167947     5.94980833     1.76358922     2.04695215    -1.03339154
O       6.34564296     3.83021770     5.70979899    -1.76358922    -2.04695215     1.03339154
O       2.26544921     2.08170327     0.12004220     0.49522551    -1.32764489     1.77510082
O       7.18295572     3.83019395    11.53956474    -0.49522551     1.32764489    -1.77510082
O       4.76912015     0.87426918     0.12000436    -1.76358922    -2.04695215    -1.03339154
O       4.67928470     5.03762793    11.53960258     1.76358922     2.04695215     1.03339154
O       5.60643292     0.87424543     5.94984610    -0.49522551     1.32764489     1.77510082
O       3.84197188     5.03765175     5.70976115     0.49522551    -1.32764489    -1.77510082
O       2.14658615     3.59595083     3.14955078     0.67887073     3.12952042     2.90896339
O       7.30181871     2.31594634     8.51005647    -0.67887073    -3.12952042    -2.90896339
O       4.61157222     2.31589113     2.68028990     0.72600473     2.02253925     1.80494697
O       4.83683264     3.59600604     8.97931716    -0.72600473    -2.02253925    -1.80494697
O       0.57006334     0.64000231     2.68025269     0.67887073     3.12952042    -2.90896339
O       8.87834150     5.27189480     8.97935438    -0.67887073    -3.12952042     2.90896339
O       3.26030983     0.64005753     8.51009362    -0.72600473    -2.02253925     1.80494697
O       6.18809501     5.27183959     3.14951357     0.72600473     2.02253925    -1.80494697
