# total energy = -19074.48756625 eV

CRYSTAL
PRIMVEC
        7.60600008     0.00000000     0.00000000
        0.00000000     7.60600008     0.00000000
       -1.89786986    -1.89786986     4.85670466
PRIMCOORD
22 1
Ti      3.71691502     6.73987102     1.05729001    -0.31775942    -0.42525754     0.17077993
Ti      3.98717399     2.82584298     1.16429801     0.69464471     2.64467703     0.86005001
Ti     -0.13030498     6.66068901     1.16609398    -0.30978796    -1.72301257     0.22905170
Ti      0.20130601     2.65963798     1.17240098    -0.63062088     1.66017992    -0.76793661
Ti      5.90890425     2.78169123     3.54660980    -0.00949843     0.62081494     1.57029952
Ti      5.58876323    -1.10671977     3.66831184     1.82209289    -0.36798979    -0.62451116
Ti      2.07918123     2.84159621     3.63414482     0.32599209     0.14615236    -0.18127261
Ti      1.05864020    -0.58633077     3.86886181     0.77859358    -1.63896215    -0.74765265
O       3.89136597     4.85718002     0.68623700    -0.57526526     0.01937481     0.05330619
O       3.90308101     1.08313899     1.04756600    -0.69502498    -2.34330532    -0.59946629
O       0.05422299     4.67563899     0.70039202     0.09428007    -1.30066655    -0.05803059
O       6.95988302     0.80978402     0.64178601     0.45778689     0.55607506     1.15062463
O       5.95719024     4.63061823     4.13020182     0.32183179     0.56192175    -1.19102130
O      -1.23685879     0.56835124     4.05275779    -0.00382709     0.99458098     0.29454954
O       1.77334123     4.99576620     4.11002281    -0.32376140     0.65124370    -0.56310471
O       2.28054222     0.97106221     4.05403882    -0.82691876    -0.01656228    -0.45255649
O       4.00407724     2.99404720     3.07342379    -0.43986655    -0.24448141     1.79397118
O       0.22349521     2.64316422     3.13787779     0.21712177    -0.07002505     0.37821816
O       5.53094702     6.40031602     1.81212098    -0.10966042     0.81586944    -0.36516543
O       5.94473299     2.97194098     1.65153902    -0.38783074    -0.23495495    -0.53802205
O       1.57276601    -0.69411899     2.01147602     0.15312468    -0.10357564    -0.11947947
O       2.06241499     2.89884102     1.57573999    -0.23564658    -0.20209650    -0.29263150
