# total energy = -4988.00420111 eV

CRYSTAL
PRIMVEC
        2.89709250     0.00000000     0.00000000
        0.00000000     4.10699469     0.00000000
        0.00000000    -0.00005618     4.33398697
PRIMCOORD
6 1
Ti      1.44854625     2.05346911     2.16699348     0.00000000     0.00000000     0.00000000
Ti      0.00000000     0.00000000     0.00000000     0.00000000     0.00000000     0.00000000
O       1.44854625     0.80038177     0.84463022    -0.00000000     0.44914232     0.31825255
O       1.44854625     3.30655640     3.48935670    -0.00000000    -0.44914232    -0.31825255
O       0.00000000     1.25306458     3.01162458     0.00000000    -0.44908807     0.31819393
O       0.00000000     2.85387364     1.32236234     0.00000000     0.44908807    -0.31819393
