# total energy = -19072.70968669 eV

CRYSTAL
PRIMVEC
        5.17600016     0.00000000     0.00000000
        0.00000000     5.50899976     0.00000000
        0.00000000     0.00000000     9.26300011
PRIMCOORD
22 1
Ti      1.69061500     3.44785501     3.39944402     0.85818056     1.66925464     0.15816070
Ti      3.72150098     2.39881397     6.10271801     0.06858754     0.63430270    -2.49511616
Ti      4.33529499     2.22074900     1.35999998     1.46390287    -1.51919652    -0.22374108
Ti      1.24661597     2.80372998     7.80265902    -0.49931125    -0.35274494     1.12352673
Ti      1.80625399     0.59914999     1.60122897    -1.40380331    -0.42425378    -1.54809778
Ti      3.10431499     5.47945199     7.74391098    -0.21733132     0.90387936     1.02214321
Ti      0.54579701     5.48546201     6.24293903    -1.05503098     0.13043263     0.42530150
Ti      4.38796300     5.00198599     3.61653100     0.22403933     0.78757958     0.33779294
O       3.55638598     3.78549502     4.59438600    -2.00665883    -2.60505400     1.61265846
O       0.82697799     2.16555402     0.31649901    -0.97077178    -0.21334713    -0.66084138
O       0.22201102     3.45757102     6.49621702    -1.59161038     0.19898135    -1.87290382
O       3.18300799     0.83026302     0.27383102     0.36675540    -0.70630133    -1.74384082
O       1.25102100     4.91756100     7.91355801     0.66638468    -0.35243744     1.61958888
O       4.35395299     0.89836898     4.94879299    -0.97458293    -0.01434496    -0.72018066
O       1.02963198     4.95786599     4.55074200     0.87394477    -1.95625388    -2.01131330
O       0.00983301     3.48609701     2.47266299     0.34770018    -0.63794955     0.57284560
O       4.56369297     1.25376500     7.20916202     0.81215960    -1.68266140     2.60642234
O       2.60620298     1.97985000     2.32378299     0.25120201     1.04093104     2.54673776
O       3.01642098     3.24754602     7.60029402     0.97896203     2.59648091     1.49853924
O       5.12083602     0.59573399     2.34560197     0.88909732     2.54596952    -2.75681368
O       1.93182299     1.41806999     6.53872302     0.90835540    -0.78457576     0.02153608
O       2.70368399     4.54047903     2.22217202     0.00982907     0.74130871     0.48759550
