# total energy = -19073.12749360 eV

CRYSTAL
PRIMVEC
        5.17600016     0.00000000     0.00000000
        0.00000000     5.50899976     0.00000000
        0.00000000     0.00000000     9.26300011
PRIMCOORD
22 1
Ti      1.68536699     3.42580001     3.36977998     1.69670349    -1.17564867    -0.60975097
Ti      3.97929401     2.25120400     5.81746099    -1.77038028    -1.86331052     0.20225488
Ti      4.41795100     2.17719401     1.32503602    -0.01517157    -0.51299415    -0.05395796
Ti      0.72797200     3.20330098     8.06490498    -0.44591353     1.40807005     0.41204900
Ti      1.78289600     0.50421702     1.33915500    -0.29137732     0.26173403    -0.60518880
Ti      3.10389498     5.12245001     8.08722700    -0.67026756     0.15220834    -0.05804679
Ti      0.92264398     0.20467401     6.03222599    -0.64072917    -1.01453274    -1.70780217
Ti      4.29207899     4.86059200     3.44618900     0.16335947     0.62816624     0.77434225
O       3.44936401     3.20596301     4.41390798    -0.12468132     1.27458347    -0.20154345
O       0.78250900     2.08572901     0.33196400     0.93300869    -0.62495339    -0.67465618
O       4.23109899     3.79034397     8.64284300    -0.99765190    -0.34594514     0.55724208
O       3.30079501     0.90267002     0.18009500     0.90078118     0.03315644    -1.75479630
O       1.48996200     4.77882501     9.18534901     0.42682000     0.02258046    -0.54511572
O       4.49168200     0.72693502     4.80312499     0.37206396     0.69425468     0.78023625
O       1.11841501     4.89292102     4.16274400    -0.21922596     0.57920394     2.90398162
O       0.11276100     3.70302401     2.40530200    -0.80436529    -2.96405650    -1.39600875
O       0.24551501     1.70010998     7.05115398    -0.66337057    -0.49887133    -0.72409208
O       2.72670802     2.04929499     2.06810899    -1.52667509     0.42469498     2.22411279
O       1.81804300     4.13123599     6.82114000     0.72243886    -0.73057898    -0.00742638
O       5.12482999     0.59715700     2.15080299     0.19081706     1.51938421    -0.18563603
O       2.58364802     0.86298702     6.38929802     1.85874218     1.44419947     1.42131150
O       2.67953002     4.64187399     2.35979398     0.90507493     1.28865512    -0.75150879
