# total energy = -19073.81023229 eV

CRYSTAL
PRIMVEC
        7.60600008     0.00000000     0.00000000
        0.00000000     7.60600008     0.00000000
       -1.89786986    -1.89786986     4.85670466
PRIMCOORD
22 1
Ti      3.66966097     6.78962998     1.15014601     0.23575456    -0.19665296     1.26510432
Ti      3.83186798     3.09990800     1.22912899     0.66910362    -0.43241883     0.05558856
Ti     -0.03679999     6.49058001     1.18380200    -0.19277059     0.69617683    -0.83188871
Ti      0.20815499     2.70308200     1.12226498    -1.22040542    -0.65733362     1.11237045
Ti      5.71206920     2.92456422     3.56366682     0.54628583    -0.21399274    -1.23227981
Ti      5.50435925    -1.23428080     3.71766481     1.48390528     2.07938045    -0.88715999
Ti      1.95694123     2.95991024     3.56665080    -1.90051928     0.71818728     1.37988767
Ti      1.68022821    -0.66790578     3.80052884    -1.75338682    -1.01841948    -0.06868448
O       3.40970000     4.82217098     0.77217603     0.65169493     1.15508832     0.19749628
O       3.76230398     1.12231600     0.77522599     0.98870086    -0.36042226     1.61273046
O      -0.02427601     4.46736102     0.58679502     0.55207185     0.54412456     1.00090769
O       7.32329502     0.84920698     0.70100698    -0.82310016     0.56721745     2.63397815
O       5.93789025     4.67751323     4.05532181    -0.31184279    -1.15297025     1.26555581
O      -0.37106179    -0.55748675     3.92432583     1.30998706     0.37082546    -1.57395718
O       1.79530822     4.91017421     4.21140079     0.09391678    -0.20870269    -2.11723945
O       1.85899523     1.14677520     4.06717279     0.82836115     0.11041632    -0.22587767
O       3.70564725     3.27742824     3.29730979     1.87773004    -0.43845913    -0.05237391
O      -0.03617980     2.97576021     3.06962483     0.77886920    -0.74206513    -0.01155866
O       5.70229302     6.47924498     1.84050901    -0.83349565     0.04905410    -1.48324348
O       5.64652002     3.07725302     1.66534203    -0.64764544    -0.74305526    -0.96822073
O       1.83731500     6.78231098     1.87641501    -0.59576622    -0.27731955    -0.70449461
O       2.02668500     2.63609901     1.67548498    -1.73744906     0.15134033    -0.36664073
