# total energy = -19072.16596395 eV

CRYSTAL
PRIMVEC
        5.93400000     0.00000000     0.00000000
        0.00000000     9.29699974     0.00000000
        0.00000000     0.00000000     4.64899994
PRIMCOORD
22 1
Ti      4.38023003     6.91458900     2.22649698    -1.13200906     0.55425266     0.68468194
Ti      4.42781698     2.46761802     1.94684898     2.68828141    -1.01056733     2.98552188
Ti      1.50754798     7.13714502     2.48529598     1.08681368     0.45794115     0.63515296
Ti      1.60000800     2.31207097     2.22851299     0.72128135    -0.38661076     1.17923870
Ti      2.96866500     4.35173198     4.46144101    -1.85465104     2.69738852    -0.76543286
Ti      2.93482899     0.19219501     0.06774802     0.48206891    -1.28710552    -1.72121048
Ti      5.86836800     4.78791501     4.52312900    -0.53050851    -0.07627335    -0.25758221
Ti      0.07708700     9.19255301     0.21127698    -2.02006765    -0.96189993    -0.13321945
O       4.43442503     5.32701502     1.09341397     0.14953593     0.32954896    -0.47518478
O       4.37571001     0.86518999     1.03848802     2.30375248     0.70996978    -0.01078655
O       1.52544698     0.66066102     1.43078601    -1.57404948     0.52232880    -1.89814487
O       4.31872502     8.30586700     3.95833002     0.99039265     1.39805175     0.38719285
O       4.39835498     3.77804500     3.69102000     3.08713217    -1.08025659    -1.77969333
O       1.47261001     8.25787401     3.96342801    -0.18138677     0.98526818     0.39378208
O       1.36965201     3.71172400     3.56165500     0.00571736     1.12799660     1.35434555
O       2.95002701     5.95064802     3.27979599    -0.65022503     0.71894859    -0.74321981
O       3.05092799     1.63350799     3.29695498     0.90767483    -0.81441343     0.75711380
O       5.81996299     6.26733002     3.38495102     0.86799035    -1.68737501     0.55989109
O       2.99833301     8.23178102     1.68753699    -0.06377392    -3.81846139     0.52403910
O       3.04416801     2.97040801     1.09612902    -3.10147404     1.18334681    -0.62401545
O       5.90816398     7.92374202     1.59502998     0.22841072    -0.39559548    -0.48060724
O       0.22432702     3.01939501     1.28502202    -2.41090556     0.83351724    -0.57186292
