# total energy = -4977.90145452 eV

CRYSTAL
PRIMVEC
        4.94409267     0.00000000     0.00000000
       -0.00000748     2.96645561     0.00000000
       -2.47207418    -1.48328192     5.38433017
PRIMCOORD
6 1
Ti     -0.00021192     2.22494715     1.34608219    -0.00869187    -0.00992395    15.05702050
Ti      2.47222277    -0.74177357     4.03824733     0.00869187     0.00992395   -15.05702050
O       0.00005236     0.74160437     0.87706327     0.00601381     0.01042480    -8.28511922
O       2.47195837     0.74156915     4.50726629    -0.00601381    -0.01042480     8.28511922
O      -0.00002037    -0.74161425     3.56922836    -0.00224046    -0.00008459    -2.04168858
O       2.47203104     2.22478771     1.81510115     0.00224046     0.00008459     2.04168858
