# total energy = -19075.65523215 eV

CRYSTAL
PRIMVEC
        7.60600008     0.00000000     0.00000000
        0.00000000     7.60600008     0.00000000
       -1.89786986    -1.89786986     4.85670466
PRIMCOORD
22 1
Ti      3.83273599     6.59000400     1.18394599     0.39627168     0.14566745    -0.46841635
Ti      3.76566997     2.75436198     1.18087999    -0.06054076    -0.01872329     2.15181308
Ti      0.12467702     6.79381000     1.02128198    -0.63183932    -0.08749313     0.52546349
Ti     -0.02472702     2.94785701     1.16137801     0.03503952    -0.14346787    -0.67732293
Ti      5.63572723     2.93274022     3.59547879    -0.79625835    -0.56454967    -0.43409493
Ti      6.10573421    -0.85708976     3.60077083    -0.97359820     0.41694927    -0.40904415
Ti      1.81391124     2.71840825     3.74405583     0.48951123     0.16182761    -2.11189566
Ti      1.53094423    -0.98730277     3.80965381    -0.32055678    -1.94522950    -1.20142193
O       3.97343602     4.56872799     0.69747599     0.05055871     1.18057748     1.42887491
O       3.67346401     0.91855000     0.95607200    -0.16546392    -2.02689239     0.09067847
O      -0.08814802     4.94434001     0.61311101     0.35528108    -0.75416012     1.36620631
O       0.08771002     1.09360400     0.69179802     0.95468850    -1.49663482     0.95514255
O       5.44213822     4.93776821     3.85113083     1.18390937     0.49948403    -0.13089697
O       5.42237323     0.95816225     4.14657382     1.02172001     0.20368004    -1.27205582
O       1.91962424     4.63710124     4.16001879    -0.35910663     0.99134627     0.08709975
O       2.19302525     0.62496024     4.04935682    -0.40508491     2.56538649    -0.06060581
O       3.78071925     2.72322021     3.19318279    -0.43781044     0.46804714    -0.56188704
O      -0.05737880     2.64948820     3.48921180     0.95345977     0.34428987    -0.79074436
O       5.87994402     6.82620602     1.60535799    -0.90254368    -0.11022041     1.09906165
O       5.76118902     2.74048700     1.62597701    -0.50361965     0.45809285     0.40989056
O       1.98481998     6.51237603     1.90954399    -0.05221321     0.05222735    -0.30807972
O       1.82904401     3.04782802     1.63823302     0.16819597    -0.34020387     0.31223514
