# total energy = -19922.82188710 eV

CRYSTAL
PRIMVEC
        7.54624721     0.00000000     0.00000000
        0.00002526     3.86701322     0.00000000
        0.00000000     0.00000000    11.40118039
PRIMCOORD
24 1
Ti      2.73516675     2.29158852     4.22975661     0.03919057     0.14957270     1.97266781
Ti      4.81110589     1.57542486     7.17142390    -0.03919057    -0.14957270    -1.97266781
Ti      6.50816119     1.57542624     1.47078809     0.03942351    -0.14950148    -1.97258810
Ti      1.03811151     2.29158732     9.93039258    -0.03942351     0.14950148     1.97258810
Ti      2.73515418     0.35808197     1.47083382     0.03919057     0.14957270    -1.97266781
Ti      4.81111852     3.50893153     9.93034686    -0.03919057    -0.14957270     1.97266781
Ti      1.03809888     0.35808049     7.17137817    -0.03942351     0.14950148    -1.97258810
Ti      6.50817376     3.50893302     4.22980233     0.03942351    -0.14950148     1.97258810
O       2.38844387     1.36164115     5.81793509     2.34819736     0.46962168    -0.81660246
O       5.15782883     2.50537224     5.58324541    -2.34819736    -0.46962168     0.81660246
O       1.38474184     1.36165671     0.11738153    -2.34858174     0.46986079    -0.81800706
O       6.16153091     2.50535668    11.28379863     2.34858174    -0.46986079     0.81800706
O       5.15781619     0.57186563     0.11734456    -2.34819736    -0.46962168    -0.81660246
O       2.38845645     3.29514776    11.28383566     2.34819736     0.46962168     0.81660246
O       6.16151834     0.57185007     5.81797207     2.34858174    -0.46986079    -0.81800706
O       1.38475424     3.29516337     5.58320843    -2.34858174     0.46986079     0.81800706
O       0.27418809     2.35213668     3.07974325    -1.32153415     0.42294868     0.47820685
O       7.27208455     1.51487676     8.32143725     1.32153415    -0.42294868    -0.47820685
O       4.04732114     1.51484066     2.62088324    -1.32073119    -0.42306515    -0.47814669
O       3.49895150     2.35217278     8.78029709     1.32073119     0.42306515     0.47814669
O       0.27417551     0.41863002     2.62084683    -1.32153415     0.42294868    -0.47820685
O       7.27209718     3.44838337     8.78033350     1.32153415    -0.42294868     0.47820685
O       3.49893893     0.41866612     8.32147360     1.32073119     0.42306515    -0.47814669
O       4.04733377     3.44834727     3.07970684    -1.32073119    -0.42306515     0.47814669
