# total energy = -19074.46315844 eV

CRYSTAL
PRIMVEC
        5.17600016     0.00000000     0.00000000
        0.00000000     5.50899976     0.00000000
        0.00000000     0.00000000     9.26300011
PRIMCOORD
22 1
Ti      1.84119800     3.39490998     3.28310699     0.98302721     0.47480374    -0.43045297
Ti      3.62247302     2.26641499     5.85722099    -1.15613527    -0.28495161     0.27448413
Ti      4.33870898     2.27132300     1.25568999     0.87459860     0.01738169    -2.77977698
Ti      0.73075700     3.28024002     8.15522601     0.44664295     0.27078817     1.82455267
Ti      1.86390002     0.59833902     1.37003000    -0.87199356    -0.50616864    -2.39974028
Ti      3.16071698     5.00177098     7.99453499    -0.15461103    -0.11137072     1.75683698
Ti      0.64300799     0.18358201     5.99539499     0.77295154     1.29568246    -0.64084847
Ti      4.55369200     4.94919400     3.33296200    -1.77130690     0.19988458    -0.03588439
O       3.47092698     3.49246100     4.44372600     0.20486763    -0.13938752     0.56165384
O       0.88657700     1.99442101     0.34955401    -0.63938397     0.71706654    -1.87820158
O       4.15958200     3.75139499     9.05092698     0.95986979    -0.59225100     0.11415548
O       3.24490500     0.95279301     0.16124502     1.01814617    -0.27906121    -1.40346623
O       1.52174401     4.65567901     9.21008598     0.44410707     0.60738555    -0.96358734
O       4.60027098     0.84984401     4.68815398    -1.53125088     0.99461337     0.92272530
O       1.02328899     4.79878198     4.24588198     0.76815669    -1.06513773     2.03528833
O       0.15627001     3.48773100     2.28786598     0.40274829     0.22463300     1.45985158
O       5.08656598     2.02285799     6.91771400     0.77989327    -1.06660094    -0.45806457
O       2.78578098     2.01676202     2.25494899    -1.06508142     0.16079377     1.92750790
O       2.52883902     3.38631000     7.18293002    -1.32657402    -0.51520350    -1.20321913
O       5.15645701     0.69585401     2.03850602     0.31280335    -0.78271454     1.18782310
O       2.43797097     0.65606300     6.50852298    -0.18092551     0.15418577    -0.13067328
O       2.74333202     4.72068801     2.33707201     0.72945001     0.22562930     0.25903540
