# total energy = -4989.39368411 eV

CRYSTAL
PRIMVEC
        3.01142592     0.00000000     0.00000000
        0.93434704     4.62501829     0.00000000
       -0.00000622    -0.00006178     4.74246069
PRIMCOORD
6 1
Ti      1.97288331     2.31247826     2.37123045     0.00000000     0.00000000     0.00000000
Ti      0.00000000     0.00000000     0.00000000     0.00000000     0.00000000     0.00000000
O       1.68780217     0.90133595     0.92423580    -0.82598160     0.30909248     0.24115954
O       2.25796445     3.72362057     3.81822510     0.82598160    -0.30909248    -0.24115954
O       0.28507859     1.41111728     3.29546710     0.82622302    -0.30907011     0.24107675
O       0.64926221     3.21383912     1.44699380    -0.82622302     0.30907011    -0.24107675
