# total energy = -19518.90583378 eV

CRYSTAL
PRIMVEC
        7.60600008     0.00000000     0.00000000
        0.00000000     7.60600008     0.00000000
       -1.89786986    -1.89786986     4.85670466
PRIMCOORD
23 1
Ti      3.80344101     6.58531200     1.19005301     0.26915295     0.31164044     0.41733442
Ti      3.80014899     2.85853899     1.15480499     0.92168632    -0.29131304     0.88404895
Ti      0.02856398     6.70041398     1.24984200    -0.47439262    -0.39430581    -0.57713240
Ti     -0.01206799     2.87885399     1.13288102    -0.27174668     0.27808265     0.84347102
Ti      5.69419920     2.86245220     3.64059681    -1.51175368     0.11576371    -0.11326999
Ti      5.69057423    -0.94684775     3.62105980    -0.32822509    -0.02497442     0.31854617
Ti      1.90873424     2.86131621     3.58871183     1.50437384    -0.34653187     0.19731707
Ti      1.90430022    -1.01427679     3.69424681     0.31861045     0.41246578     0.11342940
O       3.98437300     4.73017600     0.64753399    -0.47230643     0.26607482     1.74462964
O       3.88339101     0.90685502     0.83935502    -0.50446580     0.41100076    -0.46661786
O      -0.13636998     4.71321799     0.79454498     0.78105052     1.39496925     0.65407680
O      -0.11570699     0.98946298     0.77392898     0.87632407    -1.34237834     0.19416207
O       5.72952824     4.70343821     4.07885183     0.60459513     1.04525641     0.22273681
O       5.54421122     0.98703220     4.11242681     0.89377570    -0.86150191    -1.69311577
O       1.78081924     4.72610922     4.08476280    -0.35762438    -0.00213787    -0.29322568
O       1.88881321     0.94367121     4.07885279    -0.53356118    -0.34453001    -0.57081674
O       3.80761224     2.95942123     3.32687879    -0.12435736    -0.19555047    -1.26685370
O       3.76911820    -1.02261080     3.32093380     0.44114593    -0.15422897    -0.78543400
O       0.01776321    -1.00631177     3.26804079    -0.39900656     0.42657780    -0.47096945
O       5.69457100     6.81608699     1.65504900     0.20580737    -0.77763558     0.40476712
O       5.73613899     2.85896100     1.68312201     0.39528078    -0.12118385     0.40352014
O       1.94387003     6.52866701     1.60999400    -0.66985850     0.30455705     0.30795965
O       1.97386501     2.91185402     1.64264101    -1.56450451    -0.11011679    -0.46856316
