# total energy = -19517.86252613 eV

CRYSTAL
PRIMVEC
        5.93400000     0.00000000     0.00000000
        0.00000000     9.29699974     0.00000000
        0.00000000     0.00000000     4.64899994
PRIMCOORD
23 1
Ti      4.50650601     6.96512997     2.33816597    -0.26927328     0.56396577    -0.56900334
Ti      4.47590501     2.36046201     2.35905398    -0.57148805    -0.43825267     0.13504956
Ti      1.48338797     7.03063100     2.32770599     0.36023868     1.07343777    -0.45504660
Ti      1.42491802     2.29371599     2.24533601     0.67494697    -0.25348773     0.82361901
Ti      2.91133098     4.49838001     0.02396400     0.38987811    -1.21994571     0.53250472
Ti      2.98940399     0.04853201     0.01252399     0.04853705     0.63962077    -0.29667945
Ti      0.00797899     4.69746702     4.61603400    -0.54515635    -0.76532436     0.15486223
Ti      0.00838598     9.29515202     0.01374400    -0.20610999     0.68149943    -0.19988355
O       4.41890198     5.53273500     0.93623902    -0.05371062     0.36755810    -0.19740552
O       4.41960298     1.00049802     0.95842001     0.49021237    -1.18004731    -0.56182327
O       1.51831701     5.43991001     0.85339701     0.21720070     1.45909619     0.49657405
O       1.45828698     0.97063702     0.86729400    -0.41366211    -1.02281993     0.05486325
O       4.39699399     8.42897099     3.73872199     0.65513841    -0.74243254    -0.09117135
O       4.47525899     3.61083202     3.83458901    -0.23524883     1.24634349    -0.60440436
O       1.47156298     8.43794800     3.65621400    -0.30769174    -0.58147834     0.67406071
O       1.50559400     3.66181597     3.69204999     0.19545842     1.53079888     0.43516194
O       2.87565798     1.41125900     3.27223198     0.95725086    -0.01833454    -0.21327617
O       0.08276099     6.06695399     3.17652599    -0.70591155    -0.59416673     0.82184855
O       5.92712700     1.53096302     3.33785800    -0.23330584    -0.91315179    -0.73309326
O       2.94087801     7.96067600     1.50336500     0.39905773    -0.99844663    -0.12433397
O       2.94922901     3.12804499     1.36709498     0.32490117     0.96401878     0.12079407
O       0.01097900     7.81899398     1.39875999    -0.09969225     0.61271108    -0.77123585
O       0.08954002     3.30663998     1.37440201    -1.07156986    -0.41116146     0.56801835
