# total energy = -19960.78378197 eV

CRYSTAL
PRIMVEC
        5.93400000     0.00000000     0.00000000
        0.00000000     9.29699974     0.00000000
        0.00000000     0.00000000     4.64899994
PRIMCOORD
24 1
Ti      4.40375402     6.85649602     2.39582597     1.15958955     1.01479191    -0.67673260
Ti      4.44030900     2.39153202     2.35574302     0.14931379    -0.63033111    -0.02613296
Ti      1.51115300     7.00495098     2.30299998    -0.93110787     0.84273799    -0.65255317
Ti      1.45364700     2.39741599     2.32652000     0.08223059    -0.57738514    -0.23598133
Ti      2.94697398     4.63682802     4.61622699     0.41137743     0.81120186     0.68236435
Ti      3.01094098     0.03257001     4.61517102     0.10056154    -0.78785006     0.47838657
Ti      0.00925198     4.68656301     0.01692801    -0.23247872     1.16971199     0.07822019
Ti      0.00873201     9.24602098     4.63941702     0.16522866    -0.65249634     0.40960491
O       4.39502402     5.51587298     0.89420202     0.51360427     0.24756390     0.06542663
O       4.48235197     0.90645100     0.83182901    -0.37536989     0.13492743     0.08697994
O       1.54117900     5.63770599     0.88704400    -0.35289612    -1.01027757    -0.43620273
O       1.55593399     0.90123601     0.83779300    -0.72876686     0.44015811     0.41482939
O       4.40333099     8.23562999     3.71920001     0.28806162     1.05223670     0.79104929
O       4.52457799     3.70949199     3.80115200    -0.61794353    -0.17128181    -0.56951499
O       1.43245800     8.26123699     3.76300001     0.27741571     1.04052121     0.26382973
O       1.49900802     3.81706801     3.74537899    -0.24507019    -1.60098411    -0.61896195
O       2.88612600     6.07267799     3.25805802     0.61185156    -0.50997233    -0.21397603
O       3.06681400     1.44594800     3.17302903    -1.21050744    -0.21958489     0.23831256
O       0.06848898     5.95554403     3.19313601    -0.86922757     0.24260347    -0.04134335
O       5.88574100     1.32466099     3.24327900     0.79789074     1.27817736    -1.14586577
O       2.99036101     7.85322799     1.30991600    -0.15453596    -0.30585006     1.20624969
O       2.95485798     3.23643102     1.40391598    -0.34358590    -0.10996638     0.31600078
O       5.83929998     7.93775802     1.55380998     0.55315222    -0.35131978    -0.89368982
O       5.91893099     3.37457200     1.47950900     0.95121211    -1.34733235     0.47970092
