# total energy = -19514.91664583 eV

CRYSTAL
PRIMVEC
        5.93400000     0.00000000     0.00000000
        0.00000000     9.29699974     0.00000000
        0.00000000     0.00000000     4.64899994
PRIMCOORD
23 1
Ti      4.60037099     7.35993600     2.14205601    -2.35839744    -1.27086180    -0.90047677
Ti      4.56170702     2.30924400     2.21217400     1.08800744    -1.33264234    -0.68760580
Ti      1.18699299     7.02330502     2.24945999    -0.48992183     0.04191234    -1.25542977
Ti      1.58460101     2.25921601     2.47752999    -1.20658574    -0.66775096     0.04394634
Ti      2.95589802     4.43316902     0.32219602     0.27808625     2.70001748    -0.82674264
Ti      2.95011702     9.25365902     0.06068203     0.18069385     0.39030132     0.18926360
Ti      5.84849300     4.51012801     0.05619503     1.28020288     2.17201553     0.98567493
Ti      0.14426700     0.03259002     4.38718500    -0.65934525     0.97264586    -0.44650874
O       4.60780403     5.55851699     1.05006700    -1.62703788    -0.82190999    -1.05287691
O       4.54098402     1.02639198     0.87211898    -1.63176717    -0.30694561    -0.13002485
O       1.40551801     5.79158502     0.83889797     0.99754880    -2.62269666    -0.44940329
O       1.39383197     0.86507701     0.86797902     1.84017701     0.26385519    -0.13043725
O       4.26738599     8.52494098     3.47916002     0.58291867     0.15572741     1.90118391
O       4.52070500     3.58750398     3.99192600    -2.21275648    -0.09115952    -1.49281545
O       1.46346498     8.17201199     3.70915501     1.00791472     1.14441233     1.01166365
O       1.56415302     3.72564999     3.95683102     0.56876500    -0.08968808    -1.83254700
O       2.91442899     1.27032301     3.25336602     0.60181860     0.70238142    -0.04211931
O       5.64874902     6.20719300     3.19336499     0.55656537    -0.62841256     0.45418888
O       5.86293600     1.43766801     3.18780799     0.92523624     0.26216366     0.13428543
O       2.77096602     7.60486701     1.60314100     2.98567563     1.67692244    -1.32664164
O       3.00866101     3.23794902     1.56635201    -0.68098546    -0.24621150     1.39263263
O       5.89056000     8.27775398     1.14957598    -0.22241465    -4.14976898     3.85786793
O       0.27739302     3.04404900     1.33433499    -1.80439855     1.74569330     0.60292237
