# total energy = -19071.37498458 eV

CRYSTAL
PRIMVEC
        5.17600016     0.00000000     0.00000000
        0.00000000     5.50899976     0.00000000
        0.00000000     0.00000000     9.26300011
PRIMCOORD
22 1
Ti      1.40854898     3.04329302     3.63630402     1.65327702     0.05416956    -0.86590004
Ti      4.47452502     3.07984298     5.87655898    -0.19386794     1.19507619    -1.23420068
Ti      3.97741602     2.32027798     1.52199399     0.46328519    -0.30716672     0.91571081
Ti      1.66198699     2.62246698     8.42381701    -0.52039507     0.19579652    -0.75368369
Ti      1.35650900     0.35810499     1.26288299    -0.01195769     0.10985608     0.26471677
Ti      3.26350701     5.27129599     8.15568602    -0.71614248    -0.37566299    -0.15743822
Ti      1.65294901     0.27800898     5.59790101     0.42343488    -0.41796717    -0.02888404
Ti      3.83836400     4.93068899     3.36010303     1.23928272    -0.02921957     0.46378116
O       3.16031401     3.29783701     4.45537002    -0.08722239     0.27327109    -0.85341399
O       0.47141501     2.16444301     0.37528198    -0.87441631    -0.76111649     0.12220149
O       0.17964398     3.39783400     7.36410401     0.18401469    -0.04669151     0.61720408
O       2.79685898     1.22532098     0.40489299     1.46378125     0.03989197    -2.62274911
O       1.81364998     4.46277199     9.01908300    -0.21524204     0.19784929     1.87337922
O       3.33373598     0.38473499     4.81400000    -1.28096701     1.74328264    -0.11794220
O       0.31002500     4.65427701     4.69924702     1.25466538    -0.38078592     1.43377852
O       5.15685199     3.56079202     2.51742202    -2.23695802    -0.01514123    -0.84362631
O       0.76878199     2.05405399     5.05945400    -0.33623563    -1.39601286     0.46744087
O       2.30213498     1.73942800     2.53754001    -0.71973869     1.07447547     0.61544005
O       2.88860102     4.40851598     6.60005398     0.58918213    -1.24463551     0.75985074
O       4.86240999     0.80449198     2.19448800    -0.42754068    -1.50530561     0.79306118
O       1.73099398     0.79442301     7.41033902    -0.28922530     1.87039957    -0.84179646
O       2.22018199     4.65775698     2.45741803     0.63898622    -0.27436278    -0.00692964
