# total energy = -19960.09546046 eV

CRYSTAL
PRIMVEC
        5.93400000     0.00000000     0.00000000
        0.00000000     9.29699974     0.00000000
        0.00000000     0.00000000     4.64899994
PRIMCOORD
24 1
Ti      4.41814801     6.86594200     2.16720500     0.45773906     2.24247999     0.60304990
Ti      4.46810499     2.47476599     2.29365899     0.13510509    -2.52054978    -0.16932289
Ti      1.49366100     6.93212900     2.29267499    -0.34686714     2.12689369     0.71461011
Ti      1.48309597     2.31720600     2.44514598    -0.20872172    -1.90954900     0.41920130
Ti      3.02330002     4.65685198     0.02838898    -2.84334599    -0.28147137    -0.01924343
Ti      2.97714602     0.08271601     0.09230100     0.35236545    -0.13149578    -1.42225715
Ti      5.89655902     4.63172199     4.53706298     2.62130878    -0.39234355    -0.10673065
Ti      5.91274301     0.00276500     0.13213302     0.06800442    -0.47531359    -1.56426360
O       4.53425400     5.55943300     0.77160700    -0.54440173     0.06723437     0.63805831
O       4.51481001     0.82391300     1.07889298    -0.92531955     1.22175705     0.39413483
O       1.48924300     5.56780400     0.88328499     0.21217291    -0.91436613    -0.99387906
O       1.47328402     0.72704297     1.03724102     0.04961845     1.47047178     0.64972238
O       4.46616100     8.56859298     3.82337300    -0.33500304    -1.41993159    -1.40940189
O       4.40477300     3.75707402     3.71034899     0.38301532     0.39957452     0.45019056
O       1.43107499     8.37692699     3.67256801     0.51378476    -0.35269018    -0.27361613
O       1.57118102     3.70004803     3.75011603    -0.74183167     1.43956248     0.66884702
O       3.03494001     5.97421001     3.15904499     0.03156750     0.44945780    -0.18867045
O       2.90340999     1.49973902     3.38898002     0.21411461     0.13890801    -0.57361204
O       0.01531799     6.03649597     3.08434802    -0.58050723    -0.94134292     1.05619466
O       5.89059598     1.54308800     3.27951700    -0.30180674     0.12741569     0.24033524
O       2.98792298     7.89819298     1.28808500     0.43882834    -2.22704796     1.82443954
O       2.83271598     3.15183601     1.44982898     1.65320863     1.39306406    -1.33380834
O       0.01382999     7.76364299     1.29217099    -0.32689995    -0.43703628     0.96264246
O       5.88714501     3.21137998     1.37177301     0.02387193     0.92631842    -0.56662018
