# total energy = -19075.70589868 eV

CRYSTAL
PRIMVEC
        7.60600008     0.00000000     0.00000000
        0.00000000     7.60600008     0.00000000
       -1.89786986    -1.89786986     4.85670466
PRIMCOORD
22 1
Ti      3.69068402     6.62816498     1.34589402     1.45602217     1.64991993    -1.73088195
Ti      3.85751202     2.92561998     1.16593200     0.77392214    -1.26727614     1.21952945
Ti      0.08155902     6.54454498     1.03011898    -1.55550642     0.69602437     0.64727238
Ti      0.11752598     2.73986199     1.05483902    -0.30090866     0.06367365     1.14162319
Ti      5.79126523     2.83141521     3.61399682    -0.50418066     0.40971418    -1.66827093
Ti      5.93955425    -0.94382578     3.56595880    -0.21318438    -1.09286709    -0.24824730
Ti      1.92639220     2.93187120     3.75252383     0.62899491     0.12897738    -1.81284515
Ti      1.32604320    -0.86586479     3.84495480     1.47056305    -0.64451615     0.37955487
O       3.62154199     4.82382698     0.76743200    -0.30752514    -0.70739816     0.88690931
O       4.01253201     0.89023399     0.79933499    -1.20628106     0.60283033     1.35661892
O       0.21866800     4.68857002     0.70385998    -0.10686923    -0.34588369     0.20747139
O      -0.23599702     0.89163001     0.66843897     0.66222643     0.58345654     0.46434320
O       5.67371020     4.69800324     3.97413184     0.32057786     0.84702711    -0.11920899
O       5.66673120     0.87765825     3.82540181     0.28833596     0.32374417     0.84758427
O       1.96191222     4.83707621     4.22734183    -1.05111236    -0.02770622    -0.92496216
O       2.10993024     0.89067321     4.09935782    -1.14193275     0.47227197    -0.04320843
O       3.75286521     2.95137525     3.25863583     0.70276554    -0.20694174    -0.03961454
O       0.06891623     2.94093421     3.22500783     0.00472877    -0.60290489    -0.74367978
O       5.64649202     6.39576102     1.66966900     0.42105172     0.42816134     0.79751150
O       5.71154500     3.07263198     1.62306198     0.64949895    -0.59458840    -0.05681934
O       1.75637200     6.78261298     1.98176901     0.62700770    -0.51465791    -0.31898737
O       1.99870999     2.74401201     1.57390401    -1.61819457    -0.20106060    -0.24169279
