# total energy = -19517.10469583 eV

CRYSTAL
PRIMVEC
        5.93400000     0.00000000     0.00000000
        0.00000000     9.29699974     0.00000000
        0.00000000     0.00000000     4.64899994
PRIMCOORD
23 1
Ti      4.60795003     7.19872998     2.23271402    -0.50227830    -0.95281108    -0.03878973
Ti      4.47837298     2.30169899     2.38850899    -0.50058086    -0.95208885     0.34634315
Ti      1.34599800     7.01125100     2.10456301    -0.02429848     0.19683139     0.91342125
Ti      1.47493998     2.26610299     2.31301698     0.13478345    -0.68503624     0.82373368
Ti      3.02530300     4.44998702     0.20938401    -1.44200889    -1.65509094     0.27054006
Ti      2.92374701     9.22467598     0.01216002    -0.15691474     1.28201550    -0.43818556
Ti      5.91252599     4.63938199     0.02923800     0.48429420    -0.60388679    -1.19014147
Ti      5.87887799     0.10398598     4.59584700     0.69498024     1.14406728    -0.42041486
O       4.31970300     5.47729299     1.02408302     0.25337614     1.00323248    -0.06029368
O       4.38525901     0.90199501     0.77666202     1.60654155     0.97283921     1.41637189
O       1.42844302     5.52952798     0.82953699     1.21909442     1.46103043     1.27764566
O       1.53688499     0.95593801     0.83258399    -0.67250905    -0.20222222     0.51394263
O       4.52927100     8.44948401     3.57254901    -0.02033718    -0.11870942     1.01916999
O       4.40500801     3.50276498     4.01110498    -0.26562205     0.95332915    -1.36492333
O       1.60802700     8.43272301     3.73542501    -1.92253513    -2.14350765    -1.65542467
O       1.47837502     3.71423299     3.75704602     0.49960178     0.90965664     0.32861230
O       2.96963298     1.26460599     3.18112501     0.67645672     1.21484104    -0.75299798
O       5.86007802     6.04732500     3.27330198     0.25816122     0.30920792    -0.53243530
O       0.04839098     1.59144999     3.39424200    -0.60379732    -0.93152028    -0.97172823
O       3.03338698     7.98737702     1.41898001    -0.60977051    -2.28277896     1.05216779
O       2.92760302     3.19959399     1.61422398     1.10116584     1.45768131    -1.10716860
O       5.92798199     8.03422100     1.31405602     0.89739787    -0.36874518    -0.11511682
O       0.10072598     3.19936602     1.38511399    -1.10520119    -0.00833449     0.68567104
