# total energy = -19072.52636678 eV

CRYSTAL
PRIMVEC
        7.60600008     0.00000000     0.00000000
        0.00000000     7.60600008     0.00000000
       -1.89786986    -1.89786986     4.85670466
PRIMCOORD
22 1
Ti      3.54604199     6.89903902     1.02812800    -1.47712348     0.28363032    -1.23780640
Ti      4.12153702     3.11397200     1.23603100     0.47833155     0.07409434    -0.56972968
Ti     -0.24546501     6.49585501     1.07670197     1.06344389    -0.64083305    -0.31766968
Ti      0.17671202     2.45111902     1.26013000     0.12008856     2.27753828    -1.64663998
Ti      5.94978324     2.67568623     3.70871082    -0.70560533     1.54811218     0.52417948
Ti      5.42191020    -1.15113578     3.62781184     1.71445002    -0.51791987     1.13741172
Ti      2.13878024     2.86631323     3.60896583     0.48708333     0.36758690    -0.33770193
Ti      1.13176424    -0.56460477     3.78604584     1.36759008    -0.59935085    -2.18054980
O       3.76943502     5.07552401     0.66227200     0.02762060    -0.98451485     0.00372733
O       3.79951298     1.39170600     0.56717001     0.68197971    -2.22915781     2.88599495
O       0.16381502     4.47125402     0.77965399     0.51896760     0.02112831    -0.62410853
O       7.08630601     0.77757300     0.72617100    -0.92132842     0.49200623     1.33843427
O       5.97633524     4.71168120     4.11628980    -0.46516647    -1.43827847    -0.54529827
O      -0.62961075    -0.19024880     4.08954381    -0.84775705     1.34585191     0.37966157
O       1.53221823     5.16953425     3.95118084     0.10837975    -0.40681038     1.03054095
O       2.29574924     1.09506824     3.90110882    -0.85510655    -0.15068136     0.29240139
O       4.08491621     2.69572221     3.51912984     0.48565380     0.96936821    -1.03094822
O       0.20176624     2.53785424     3.04778880     0.68141330    -0.49421095     2.13562773
O       5.25893599     6.65409202     1.85909202     0.55773367     0.55056467    -1.12651256
O       5.95592101     3.16149000     1.73541801    -1.27005138    -0.90433934    -0.17354516
O       1.56483798     6.84948199     1.83355498     0.36955328     0.41452600    -0.11539270
O       2.36822599     3.10085200     1.73371099    -2.12015071     0.02168983     0.17792323
