# total energy = -19898.93914353 eV

CRYSTAL
PRIMVEC
        7.73774993     0.00000000     0.00000000
        0.00003269     6.08696525     0.00000000
        0.00000000     0.00000000    12.31968988
PRIMCOORD
24 1
Ti      2.80458158     3.60713002     4.57051708     0.49573613    -0.86840944     1.27619864
Ti      4.93320111     2.47983544     7.74917287    -0.49573613     0.86840944    -1.27619864
Ti      6.67332290     2.47983755     1.58927868     0.49529724     0.86856911    -1.27696663
Ti      1.06445978     3.60712818    10.73041141    -0.49529724    -0.86856911     1.27696663
Ti      2.80456537     0.56364753     1.58932807     0.49573613    -0.86840944    -1.27619864
Ti      4.93321731     5.52331813    10.73036202    -0.49573613     0.86840944     1.27619864
Ti      1.06444357     0.56364521     7.74912348    -0.49529724    -0.86856911    -1.27696663
Ti      6.67333911     5.52332045     4.57056647     0.49529724     0.86856911     1.27696663
O       2.44905826     2.14332398     6.28664345     0.74630231     1.49178777    -1.31165416
O       5.28872449     3.94364147     6.03304650    -0.74630231    -1.49178777     1.31165416
O       1.41988504     2.14334853     0.12683814    -0.74619304     1.49226009    -1.31254119
O       6.31789778     3.94361699    12.19285147     0.74619304    -1.49226009     1.31254119
O       5.28870829     0.90015878     0.12679817    -0.74630231    -1.49178777    -1.31165416
O       2.44907447     5.18680667    12.19289144     0.74630231     1.49178777     1.31165416
O       6.31788158     0.90013430     6.28668342     0.74619304    -1.49226009    -1.31254119
O       1.41990111     5.18683123     6.03300653    -0.74619304     1.49226009     1.31254119
O       0.28115025     3.70243731     3.32785559    -1.39289257     0.30648744    -0.01497771
O       7.45663250     2.38452815     8.99183436     1.39289257    -0.30648744     0.01497771
O       4.15003355     2.38447138     2.83202857    -1.39338776    -0.30643524     0.01495277
O       3.58774920     3.70249415     9.48766118     1.39338776     0.30643524    -0.01495277
O       0.28113404     0.65895468     2.83198922    -1.39289257     0.30648744     0.01497771
O       7.45664871     5.42801084     9.48770053     1.39289257    -0.30648744    -0.01497771
O       3.58773299     0.65901146     8.99187364     1.39338776     0.30643524     0.01495277
O       4.15004976     5.42795400     3.32781624    -1.39338776    -0.30643524    -0.01495277
