# total energy = -19933.62038215 eV

CRYSTAL
PRIMVEC
        4.60641973     0.00000000     0.00000000
        0.00002525     4.90262359     0.00000000
        0.00000000     0.00000000     8.24447842
PRIMCOORD
24 1
Ti      1.66962056     2.90529021     3.05864275    -0.10911612     1.27987455    -1.65854676
Ti      2.93682442     1.99733343     5.18583591     0.10911612    -1.27987455     1.65854676
Ti      3.97274978     1.99733512     1.06356363    -0.10409809    -1.27954493     1.65343206
Ti      0.63369520     2.90528871     7.18091512     0.10409809     1.27954493    -1.65343206
Ti      1.66960803     0.45397850     1.06359670    -0.10857901     1.27848975     1.65276409
Ti      2.93683695     4.44864528     7.18088206     0.10857901    -1.27848975    -1.65276409
Ti      0.63368267     0.45397668     5.18580285     0.10464677     1.27821927     1.65936566
Ti      3.97276231     4.44864710     3.05867581    -0.10464677    -1.27821927    -1.65936566
O       1.45796982     1.72629716     4.20709432    -2.95568318    -2.54805262    -0.41660808
O       3.14847516     3.17632653     4.03738434     2.95568318     2.54805262     0.41660808
O       0.84528476     1.72631690     0.08488153     2.95451025    -2.54948293    -0.41444399
O       3.76116026     3.17630679     8.15959689    -2.95451025     2.54948293     0.41444399
O       3.14846263     0.72501469     0.08485478     2.95520419     2.54886098    -0.41577685
O       1.45798235     4.17760895     8.15962365    -2.95520419    -2.54886098     0.41577685
O       3.76114773     0.72499494     4.20712107    -2.95490620     2.54876071    -0.41547243
O       0.84529720     4.17762875     4.03735759     2.95490620    -2.54876071     0.41547243
O       0.16737722     2.98205360     2.22703936    -1.06298649     0.62893140    -0.72268389
O       4.43906775     1.92057005     6.01743930     1.06298649    -0.62893140     0.72268389
O       2.47059078     1.92052435     1.89522618    -1.06283376    -0.63063656     0.72135103
O       2.13585420     2.98209929     6.34925233     1.06283376     0.63063656    -0.72135103
O       0.16736469     0.53074175     1.89519986    -1.06258102     0.62986549     0.72096536
O       4.43908028     4.37188189     6.34927866     1.06258102    -0.62986549    -0.72096536
O       2.13584167     0.53078744     6.01746558     1.06320554     0.62924739     0.72311121
O       2.47060331     4.37183620     2.22701303    -1.06320554    -0.62924739    -0.72311121
