# total energy = -19517.42663671 eV

CRYSTAL
PRIMVEC
        7.60600008     0.00000000     0.00000000
        0.00000000     7.60600008     0.00000000
       -1.89786986    -1.89786986     4.85670466
PRIMCOORD
23 1
Ti      3.73537198     6.58576503     1.10147102     1.41167500     0.79350315     2.16946937
Ti      3.80555200     2.77364001     1.09318500    -0.39141949    -0.45401122     1.77515559
Ti      0.04690802     6.80253100     1.20852802    -1.57598346     0.74539034    -0.77165776
Ti     -0.06136800     2.96047699     1.11763098     0.38918880    -1.35317775     1.32180488
Ti      5.71096322     2.94988720     3.74919780    -1.41125282     0.36065957     0.56948156
Ti      5.75955222    -0.89750679     3.57263580    -1.77150410    -0.43083117    -0.33475159
Ti      2.04085324     2.77928321     3.73448080     0.65570560    -0.42891493    -1.56987015
Ti      1.89447323    -1.05238379     3.57049379     0.81588101     0.36911465     0.33260883
O       3.96211798     4.62805701     0.85812198    -0.99586781     0.83923744     0.74568113
O       4.01634700     0.91142198     0.59039703    -0.24917470    -0.74246648     0.82568875
O      -0.00775700     4.84034001     0.99233900     0.91535086    -0.39527563    -0.97461532
O      -0.18655498     1.03791302     0.78333299     0.20460281    -1.04676950     0.02490654
O       5.67168123     4.85198821     3.93356680     0.61736941    -1.46105125     1.28579837
O       5.59728722     0.92850223     4.13289983     0.75688780     1.48247806    -0.83614311
O       1.50515224     4.55721923     4.12476680    -0.07119670     1.31302405    -1.45154845
O       1.94608024     0.95662822     4.10825081    -1.12605593    -1.73538343    -0.67526553
O       3.80627523     2.62440922     3.60769083     0.51686546     1.13967841    -1.03247417
O       3.74286921    -1.08170677     3.13614082    -0.63871008    -0.12529222    -0.12719021
O      -0.07287480    -0.94793479     3.13459980     1.83464759     0.37458004     0.88494807
O       5.71755698     6.58840901     1.58640100    -1.09395209     0.60683354    -0.12063363
O       5.69722102     2.81140601     1.94003100     0.62103117     0.17270389    -1.84064187
O       1.87534702    -0.52001899     1.63291002     0.53556073    -1.12316704    -0.32616050
O       1.88894799     2.60654197     1.72817500     0.05035122     1.09913775     0.12540946
