# total energy = -4982.44041512 eV

CRYSTAL
PRIMVEC
        2.62562922     0.00000000     0.00000000
        0.00000000     4.11396735     0.00000000
        0.00000000    -0.00005339     4.11396735
PRIMCOORD
6 1
Ti      1.31281456     2.05695693     2.05698363     0.00000000     0.00000000     0.00000000
Ti      0.00000000     0.00000000     0.00000000     0.00000000     0.00000000     0.00000000
O       1.31281456     0.80174123     0.80175163    -0.00000000     2.13200247     2.13200247
O       1.31281456     3.31217264     3.31221562     0.00000000    -2.13200247    -2.13200247
O       0.00000000     1.25519406     2.85873609     0.00000000    -2.13038293     2.13038293
O       0.00000000     2.85871980     1.25523116     0.00000000     2.13038293    -2.13038293
