# total energy = -19517.22402378 eV

CRYSTAL
PRIMVEC
        5.93400000     0.00000000     0.00000000
        0.00000000     9.29699974     0.00000000
        0.00000000     0.00000000     4.64899994
PRIMCOORD
23 1
Ti      4.50311001     7.10057802     2.16362702     1.23281048    -0.20651854     1.04115447
Ti      4.47537699     2.30435499     2.26816900    -0.55270228     0.03644566     0.95375159
Ti      1.45992701     6.98120299     2.30920299    -1.82473882    -1.15679759    -0.36114963
Ti      1.46577500     2.36172902     2.31614802     0.53699566    -0.55874000     0.42484847
Ti      2.88105601     4.62660802     0.21034399     0.89843120    -0.83253174    -0.41313735
Ti      2.97746300     0.02492102     0.05420802     1.01203055     0.56091053    -0.25145784
Ti      5.91767197     4.62712000     0.06422899    -1.14975405     0.28514573    -1.68402126
Ti      0.12133198     9.21752198     4.41637500    -1.04182064     0.36807207     0.83432149
O       4.30672201     5.61491999     1.02992800     0.36089534    -0.70697547    -0.79220140
O       4.52674799     0.84433199     0.95931199    -0.30109403    -0.02788722    -0.24624055
O       1.32970500     5.47322002     1.03160200     1.29811961     0.51590850    -0.06618793
O       1.43485797     0.92576099     0.88718799     0.40829185    -0.55238089    -0.23267310
O       4.48127298     8.30895401     3.75240398    -0.30085852     0.62043622    -0.51034411
O       4.35320399     3.68317500     3.80460699     0.06478411     0.84910096     0.57390078
O       1.66935001     8.23434600     3.58941199    -0.20535589     1.86940481     1.87006198
O       1.47128299     3.82061101     3.81739398    -0.22340504    -0.16791161    -0.48605721
O       2.90220902     1.42691100     3.17211498     0.51625791    -0.48303487     0.53791843
O       5.90485901     6.18381998     3.34036498     0.07514900    -0.79726133    -0.18746871
O       0.05737599     1.45549901     3.30300798    -0.55380966    -0.24326347    -0.47364546
O       2.95868298     7.76830002     1.32669901    -0.28030666     0.53922095     0.27834310
O       2.89140899     3.47783898     1.57685200     0.55486844    -1.79475614     0.28762607
O       0.07004899     7.60559600     1.27194801     0.12630060     2.28933476    -0.92242474
O       0.00376700     3.32034599     1.50591097    -0.65108944    -0.40592155    -0.17491736
