# total energy = -19960.73956659 eV

CRYSTAL
PRIMVEC
        5.93400000     0.00000000     0.00000000
        0.00000000     9.29699974     0.00000000
        0.00000000     0.00000000     4.64899994
PRIMCOORD
24 1
Ti      4.43489800     6.78391100     2.37346802     1.23581662     2.09629498     0.02796950
Ti      4.43709203     2.44492902     2.33261501     0.03531283    -1.69912830     0.27556117
Ti      1.54690099     6.98509901     2.24018198    -1.24343017     1.22018431    -0.11078116
Ti      1.44001301     2.36234599     2.31730999    -0.13197503    -0.63183058     0.97513109
Ti      2.97503302     4.65504400     0.03554701    -0.45818155    -0.64928735    -0.04505654
Ti      2.90377602     0.04106802     0.03771399     1.76074121    -0.00655529    -0.87446953
Ti      0.02067300     4.67223098     4.60278499     0.54988898    -0.48706534    -0.24210391
Ti      5.93033201     0.02091002     0.05219201    -1.96070523    -0.58117160    -0.59050857
O       4.49922802     5.48454802     0.88387100    -0.77563063     0.25762438     0.25892792
O       4.47795001     0.81754599     0.99418202    -0.43701365     0.45975610    -0.36069891
O       1.47636801     5.59941700     0.90341003     0.43366813    -0.93120506    -0.77825290
O       1.44076402     0.87665699     1.01294998     0.76391334    -0.28239851    -0.42681177
O       4.46123801     8.42219000     3.70303401    -0.28720904    -0.48061186     0.00490490
O       4.49522897     3.72080903     3.71821600    -0.35809053     1.12038819     0.58475289
O       1.56246103     8.47681798     3.65225200    -0.03128340    -0.28827708     0.28172359
O       1.43402098     3.72711602     3.74109800     0.53296263     0.45278763     0.40091946
O       2.93730802     5.96654202     3.22398303     0.25826587     0.35965324    -0.09877693
O       2.98040200     1.65899899     3.36492902    -0.42873907    -1.39844847    -0.12490372
O       0.11044501     5.97102098     3.15055402    -0.81315204     0.46366803     0.30405106
O       5.89525200     1.41529599     3.20841902     0.40128148     0.51315999     0.17825902
O       3.05451502     7.68456100     1.29047101    -0.44282152     0.54056744     0.67678814
O       2.93183998     3.23119201     1.39747398     0.05263024     0.49887416    -0.59710422
O       5.87219702     7.83919299     1.38417401     0.88516867    -0.55123855     0.32672408
O       5.90515497     3.26320601     1.40245598     0.45858213     0.00425981    -0.04624491
