# total energy = -19958.52342953 eV

CRYSTAL
PRIMVEC
        7.60600008     0.00000000     0.00000000
        0.00000000     7.60600008     0.00000000
       -1.89786986    -1.89786986     4.85670466
PRIMCOORD
24 1
Ti      3.72222701     6.54783498     1.32781298     0.81702875     3.15245518     1.46738928
Ti      3.47488300     2.98517401     1.22303298     5.06073174    -0.86127488    -0.76343357
Ti      0.07863500     6.55025300     1.19019801    -0.40624319     1.94382773    -0.80731512
Ti      0.13428301     3.10532101     1.15298901    -3.80250461    -2.33614505    -0.96697914
Ti      5.65866024     2.85051825     3.40372480    -0.59872376     0.71666673     0.34422790
Ti      6.00122224    -0.93474880     3.66185381    -1.07091989    -1.17978480    -0.11505280
Ti      1.73691023     2.84218624     3.64823279     0.58800020     0.75264368     1.36693804
Ti      2.01935123    -1.01927275     3.78262979    -0.72682105    -0.50325738     0.31624632
O       3.50525597     4.85521000     0.87471602    -0.26696545    -4.75416846    -1.18201678
O       3.71425098     0.70916700     0.88868302     0.97930348     3.10617016    -0.99452158
O       0.49009402     4.78805201     0.73773997    -0.34200878    -0.49933850    -0.19340334
O       0.11409802     1.00066100     0.61186601    -0.03422345    -1.08111946     2.00394426
O       5.51459121     4.62595422     4.00568482     0.51870046     0.71542489     0.75985023
O       5.70548920     0.93676423     4.03667281     0.21052200     1.69018882    -0.57086225
O       1.97070725     4.61553224     4.09562681    -0.02978856    -0.07253676    -0.26613602
O       1.56110421     0.80631822     4.07827784     0.54939841     2.09732059     1.03786834
O       3.70634920     3.05635724     3.11486483    -0.07554572    -1.56845116     0.08506986
O       3.75269322    -0.96330379     3.31408683     0.85432596    -0.05836741    -0.48271991
O      -0.06723880     3.05789821     3.19730281     1.72065461    -0.33634901    -0.38457444
O       0.16616520     6.26821724     3.14853881    -0.66221075     0.50469822     0.90547319
O       5.83241998     6.41646201     1.76499198    -0.81255940     0.46026723    -1.25605044
O       5.76651302     2.91946898     1.58631999    -0.34437754     0.14089471    -1.09439689
O       1.87970702     6.89704502     1.62494702     0.23810867    -0.92417052     0.52293789
O       1.86162699     2.78756102     1.69709001    -2.36388212    -1.10559431     0.26751696
