# total energy = -19516.40324862 eV

CRYSTAL
PRIMVEC
        5.17600016     0.00000000     0.00000000
        0.00000000     5.50899976     0.00000000
        0.00000000     0.00000000     9.26300011
PRIMCOORD
23 1
Ti      1.80550700     3.23310699     3.36370598     0.78449426    -0.55587271     3.25863072
Ti      3.32018200     2.20084802     5.86280201     0.36979625     1.07935671    -1.92324656
Ti      4.54456502     1.96707403     1.44075698    -1.79017958     1.74917561    -2.46484681
Ti      0.81761801     3.46615703     7.81890598    -1.14697006    -0.45840704    -0.06634683
Ti      2.07713099     0.29706000     1.33955500    -0.62598492     1.34838573    -2.02474809
Ti      3.20469102     5.17595502     7.91516099    -0.54063095    -0.92139707    -0.12910208
Ti      0.71165498     0.51606900     5.94975398     0.27920365     1.11359276    -2.77844026
Ti      4.50886402     4.95770602     3.31811302    -0.49566774    -1.31062109     3.50246293
O       1.57087801     1.90763001     4.95711800     1.31202235     0.85315328    -2.07139512
O       3.50344799     3.57256002     4.46080398     0.07786203    -0.30107038    -0.18842311
O       4.96287799     3.10363002     9.25173699    -1.36033905    -1.35004152     1.25819628
O       3.46547698     0.74768898     0.11184500     0.83473081     0.41901078     0.32120649
O       1.78582801     4.39684900     9.12226801     1.78979597     2.36132953     0.44368824
O       4.34853702     0.78651498     4.90156302    -1.53162395     0.06208625    -1.03776293
O       1.01078898     4.71526802     4.40957698    -0.42948160    -0.42774482    -0.27826031
O       0.14224999     3.29604898     2.45782899     0.54022008     0.99291284     0.90912442
O       5.07863202     2.09891002     6.95010600    -1.50616899    -1.01195213    -1.19830961
O       2.90509499     1.87848600     2.27328302    -1.47149302     0.44737906     0.38870878
O       2.43710101     3.59435302     6.87889202     1.16875682     0.64104696     0.41455429
O       0.32131801     0.64278901     2.20327398     1.71850465    -0.82680949    -0.73078749
O       4.98935199     4.86063100     7.09795600    -1.18828462    -0.46155664     1.23752795
O       2.25869699     1.01053201     7.02597800     1.07609269    -1.42265773     1.09427477
O       2.71673800     4.54707998     2.23523301     2.13534465    -2.01929786     2.06329460
