# total energy = -19071.52758160 eV

CRYSTAL
PRIMVEC
        5.17600016     0.00000000     0.00000000
        0.00000000     5.50899976     0.00000000
        0.00000000     0.00000000     9.26300011
PRIMCOORD
22 1
Ti      1.44099902     3.17116801     3.61136501    -0.49644472    -1.61817965    -0.42494592
Ti      4.40372200     3.19213899     5.74162799     1.26198557    -0.59387543    -0.53661051
Ti      3.87273502     2.25728002     1.69645601    -0.24897338    -0.53728106     0.61628054
Ti      1.61300698     2.52488400     8.37642898    -1.86040774     1.78378421     1.15872412
Ti      1.28744703     0.36899699     1.18082300     0.45530192     0.19514243     1.53355305
Ti      3.28621999     5.46296002     8.20484601    -0.00908063    -1.83016462     0.34251632
Ti      1.81493599     0.22516799     5.57466801    -1.74175463     0.88483725    -0.32400720
Ti      3.87274301     4.94530698     3.47785698    -0.80633476     1.23415749    -0.38424431
O       3.26900903     3.34862099     4.16175301    -1.40867966    -2.09010633     2.65523887
O       0.31872901     1.93600301     0.65395598     0.84580172     0.82561624    -3.07510454
O       0.34667698     3.13458102     7.21051502     0.23006008    -0.41576913     1.19712973
O       2.82982001     1.33755000     0.25010700     0.71548197     0.35852556    -0.29201341
O       2.20248800     4.37589501     9.22968602    -0.03557303    -0.63005292    -0.14430296
O       3.30125799     0.67123499     4.77404702     0.48194447     0.56935635     0.72414890
O       0.43268300     4.41976301     4.84564099    -0.07631140     1.04613213     0.57389461
O       4.81466597     3.64401001     2.56051303     2.19208789    -1.40672768    -2.17274084
O       0.78582499     1.82969400     4.83879598    -0.01782855    -0.53751605     0.89908888
O       2.09450800     1.76401099     2.47758598     0.16518701     0.34953081    -0.30413925
O       3.12989002     4.22948701     6.63862100    -0.55834971     0.37514749     0.75137664
O       4.54665802     0.63992299     2.24387400     1.05476332    -0.28810507    -0.12839785
O       1.97578502     0.92929002     7.36026700    -0.73759449     0.50221480    -1.82254181
O       2.07325699     4.61682602     2.57709098     0.59471875     1.82333396    -0.84290280
