# total energy = -19071.02676198 eV

CRYSTAL
PRIMVEC
        5.17600016     0.00000000     0.00000000
        0.00000000     5.50899976     0.00000000
        0.00000000     0.00000000     9.26300011
PRIMCOORD
22 1
Ti      1.58487798     3.18721098     3.61885001     0.05222427    -1.13074794     0.04901553
Ti      4.46640501     3.21376498     5.91512901    -0.87576948    -2.15774128    -2.46897446
Ti      4.12368902     2.13468600     1.29230397     3.49084873     1.32295288     3.10382352
Ti      1.49642500     2.82130300     8.17308802    -0.90226137    -0.59854250     0.04214014
Ti      1.62602199     0.61547997     1.47550202    -0.99075363    -1.72638508     0.22512510
Ti      2.99844498     5.29630702     8.22688100     0.65500857    -1.04634656    -2.99950971
Ti      1.45109297     0.10960298     5.65877798     2.44448161     3.35288637    -0.23108544
Ti      4.09180800     4.89877198     3.51237902    -1.40436458    -0.60089686     0.10066387
O       3.28374000     3.25404601     4.50036199    -1.48994635    -0.66312503    -0.55107503
O       0.67917302     1.56011402     0.22731698    -1.39183816     1.86383940    -1.14281258
O       5.01678702     3.58833199     7.53846400     0.80322295     0.67865810     3.02010143
O       3.20069801     1.12741398     0.19590502    -1.03084563    -0.54309329    -1.67667407
O       1.97064698     4.43042302     0.07424399    -0.95800933    -1.39583931     0.38599806
O       2.64651301     0.33891400     4.37000098     1.61464644     0.36766532     1.45003870
O       0.37880201     4.37759102     4.92985998    -1.04491651    -0.12865162    -1.79196752
O       4.83913799     3.34926600     2.60509700     0.55148821     0.96395553    -0.84058521
O       0.73739903     1.83659902     5.07701501    -1.46388975     1.01194390     0.27860330
O       2.42486997     2.01689299     2.25911398    -0.17773014     0.91282835     0.99995407
O       2.56357601     4.27595501     6.54523598     0.62240723    -1.00572723     2.26450766
O       4.78017499     0.71721800     2.35332002     1.08273977    -0.84054099    -0.12715884
O       1.89227001     1.01293802     7.29639001     0.32334154     1.45214161     0.64212811
O       2.14459802     4.60457001     2.56068501     0.08991562    -0.08923351    -0.73225637
