# total energy = -19518.90344503 eV

CRYSTAL
PRIMVEC
        7.60600008     0.00000000     0.00000000
        0.00000000     7.60600008     0.00000000
       -1.89786986    -1.89786986     4.85670466
PRIMCOORD
23 1
Ti      3.89651699     6.62470602     1.22809498    -0.04699696    -0.78488687     0.30162085
Ti      3.71589900     2.83239800     1.19895102     0.54930354     1.10073544     0.32887070
Ti      0.09277102     6.64647399     1.16534001    -0.18149115    -1.16226119     0.37801658
Ti     -0.00887700     2.77522400     1.12187900    -0.21913212     1.55336623     0.35821342
Ti      5.52833722     2.84112223     3.64285481     0.10414591     0.24624313     1.12536456
Ti      5.72215220    -0.98676677     3.60703279    -0.34936805     0.36327413    -0.25510238
Ti      1.91694025     2.90762324     3.58991582     0.23907669    -0.43002308     2.46515097
Ti      1.85280820    -0.96429578     3.68095182     0.68479841     0.44518025    -0.72544911
O       3.97945398     4.72341798     0.78879198    -0.62083166    -0.00868442     0.07125712
O       4.06308500     1.00918002     0.79985300    -0.65462676    -0.48410754     0.20313342
O      -0.05952101     4.69678502     0.76752202     0.68806577     1.35390820     0.05313598
O      -0.16369601     0.95015903     0.83421100     0.68161847    -0.69423642    -0.32723213
O       5.75385621     4.77944923     4.11453484     0.25551658    -0.22911186    -0.56773090
O       5.64111521     0.99412820     4.08054880     0.40823246    -1.07405715    -1.37264410
O       1.82480223     4.74618324     4.09205983    -0.47953174     0.16117198    -0.02870509
O       1.76864420     0.95780421     4.03257280    -0.22682101     0.45254929     0.08730055
O       3.74270024     3.03822525     3.28261682     0.30515689    -0.67982127    -1.02762995
O       3.77294822    -0.87371477     3.22699579     0.77384937    -0.19133206    -0.46667237
O      -0.01210075    -0.94865177     3.28019181     0.46834770     0.15241505    -0.06368625
O       5.81379400     6.54120200     1.59854202    -1.27134748     0.29734279     0.78758061
O       5.89642799     3.06477100     1.83724801    -0.53930040    -0.80415395    -0.22178678
O       1.96724998     6.44007898     1.57773297    -0.63854888     0.86810451     0.54923103
O       1.81645499     2.95394800     1.71472601     0.06988467    -0.45161547    -1.65223727
