# total energy = -19961.32703763 eV

CRYSTAL
PRIMVEC
        7.60600008     0.00000000     0.00000000
        0.00000000     7.60600008     0.00000000
       -1.89786986    -1.89786986     4.85670466
PRIMCOORD
24 1
Ti      3.77920998     6.69972202     1.28430101    -0.36457022     0.24259087     0.80375106
Ti      3.77401700     2.94856997     1.17873899     0.17218350    -0.23577899     1.02682828
Ti      0.00645501     6.53418898     1.19106702     0.32827754    -0.80587505    -0.48673058
Ti      0.05709399     2.72031101     1.18162899    -0.36163068     1.11863495    -0.70894982
Ti      5.73269124     2.84557721     3.52512282    -0.74603234    -1.19511656     0.78881911
Ti      5.71197623    -1.04533478     3.60362082    -0.05653344     0.81497393     0.29583201
Ti      1.91497621     2.97861322     3.75973483     0.35962856    -0.50744391    -1.88689166
Ti      1.82950323    -0.91331675     3.72691880     0.23288958     0.32064137    -0.93303620
O       3.76816499     4.82400098     0.88894798     0.00207591    -0.17317492    -0.55742900
O       3.74619202     1.06957099     0.84350700    -0.11855670    -1.22826220    -0.19350464
O       0.06722398     4.68445001     0.68889998    -0.18888925    -0.42550796     0.05652521
O       0.22911899     0.86136398     0.71998401    -0.57697376     0.41088943     0.28188171
O       5.77185120     4.65453424     4.08453483    -0.42416739     1.47556694    -0.45218317
O       5.78454124     0.90436720     3.83347980    -0.17659372    -0.34053863     1.03849852
O       1.74118323     4.80882825     4.17185881     0.23975032     0.68029178     0.09426105
O       1.84240124     1.08415321     4.03972579    -0.27218222    -0.83962387     0.39268705
O       3.77375025     3.04480324     3.26265482    -0.35054511    -0.23703009    -0.45734209
O       3.81009123    -0.89467775     3.29716581    -0.91461578    -0.16114858    -0.17215239
O      -0.10978179     2.99856024     3.10837182     2.10153643    -0.37344850     0.14456804
O      -0.01233380    -1.01601476     3.13147279     0.22165771     0.32255401     1.00800548
O       5.66072800     6.44151602     1.62065899     0.11010008     0.64508642    -0.27077943
O       5.73207099     2.79534099     1.45135598    -0.96687347     0.04162258     0.47595200
O       1.86164398     6.46421597     1.72933501     1.11226427     0.61265092    -0.05911123
O       1.86756103     2.92187298     1.72397402     0.63780120    -0.16255369    -0.22949958
