# total energy = -19906.41437105 eV

CRYSTAL
PRIMVEC
        8.31484646     0.00000000     0.00000000
        0.00002783     4.26087567     0.00000000
        0.00000000     0.00000000    12.56241172
PRIMCOORD
24 1
Ti      3.01374855     2.52499106     4.66056515     0.28981280    -0.33729261     2.76685924
Ti      5.30112593     1.73588480     7.90184670    -0.28981280     0.33729261    -2.76685924
Ti      7.17102945     1.73588632     1.62059059     0.28869617     0.33730932    -2.76729736
Ti      1.14384509     2.52498974    10.94182145    -0.28869617    -0.33730932     2.76729736
Ti      3.01373470     0.39455328     1.62064096     0.28981280    -0.33729261    -2.76685924
Ti      5.30113985     3.86632270    10.94177108    -0.28981280     0.33729261     2.76685924
Ti      1.14383118     0.39455165     7.90179632    -0.28869617    -0.33730932    -2.76729736
Ti      7.17104331     3.86632434     4.66061553     0.28869617     0.33730932     2.76729736
O       2.63171130     1.50032682     6.41050256     1.24087552     1.16833414    -2.15623281
O       5.68316324     2.76054904     6.15190929    -1.24087552    -1.16833414     2.15623281
O       1.52578036     1.50034397     0.12933706    -1.24199987     1.16869435    -2.15778267
O       6.78909425     2.76053190    12.43307441     1.24199987    -1.16869435     2.15778267
O       5.68314933     0.63011121     0.12929632    -1.24087552    -1.16833414    -2.15623281
O       2.63172516     3.63076466    12.43311522     1.24087552     1.16833414     2.15623281
O       6.78908040     0.63009406     6.41054330     1.24199987    -1.16869435    -2.15778267
O       1.52579403     3.63078187     6.15186855    -1.24199987     1.16869435     2.15778267
O       0.30211465     2.59170616     3.39342080    -2.19405401     0.69170594     0.17248329
O       8.01275983     1.66916976     9.16899105     2.19405401    -0.69170594    -0.17248329
O       4.45954829     1.66912999     2.88782505    -2.19229512    -0.69173936    -0.17320063
O       3.85532619     2.59174594     9.67458661     2.19229512     0.69173936     0.17320063
O       0.30210080     0.46126826     2.88778493    -2.19405401     0.69170594    -0.17248329
O       8.01277375     3.79960760     9.67462673     2.19405401    -0.69170594     0.17248329
O       3.85531234     0.46130804     9.16903110     2.19229512     0.69173936    -0.17320063
O       4.45956221     3.79956783     3.39338069    -2.19229512    -0.69173936     0.17320063
