# total energy = -4908.28152781 eV

CRYSTAL
PRIMVEC
        6.07552927     0.00000000     0.00000000
       -0.00000751     2.02517642     0.00000000
       -3.03780330    -1.01271999     6.89220176
PRIMCOORD
6 1
Ti     -0.00026002     1.51893061     1.72305002    -0.04618269    -0.02938952    86.96275787
Ti      3.03797830    -0.50647423     5.16915073     0.04618269     0.02938952   -86.96275787
O       0.00006414     0.50627215     1.12268316     0.04520078     0.03066324   -83.84546099
O       3.03765397     0.50618417     5.76951764    -0.04520078    -0.03066324    83.84546099
O      -0.00002787    -0.50635721     4.56878388    -0.00120045    -0.00002803    -0.66593165
O       3.03774587     1.51881347     2.32341693     0.00120045     0.00002803     0.66593165
