# total energy = -4987.04227567 eV

CRYSTAL
PRIMVEC
        3.99520730     0.00000000     0.00000000
       -0.00000744     3.26880579     0.00000000
       -1.99763031    -1.63444025     4.68206860
PRIMCOORD
6 1
Ti     -0.00017340     2.45172617     1.17051728    -0.00251505    -0.00852012     7.00327263
Ti      1.99774295    -0.81736083     3.51155148     0.00251505     0.00852012    -7.00327263
O       0.00004121     0.81719457     0.76267077     0.00192319     0.00330310    -1.24931363
O       1.99752824     0.81717067     3.91939803    -0.00192319    -0.00330310     1.24931363
O      -0.00001933    -0.81718713     3.10370497    -0.00063661    -0.00012213     0.66986184
O       1.99758867     2.45155237     1.57836378     0.00063661     0.00012213    -0.66986184
