# total energy = -19074.84347076 eV

CRYSTAL
PRIMVEC
        5.93400000     0.00000000     0.00000000
        0.00000000     9.29699974     0.00000000
        0.00000000     0.00000000     4.64899994
PRIMCOORD
22 1
Ti      4.45276800     6.90403799     2.31638102    -0.59560270     0.02895577     0.48666604
Ti      4.36309299     2.35572302     2.30848299     1.02522905     0.17041407    -0.20773287
Ti      1.48376602     7.03860401     2.39391199     0.55487821    -0.91017780     0.39141152
Ti      1.52904602     2.41094600     2.28202900    -0.81163175     0.45369960    -0.01168413
Ti      3.02590902     4.62872298     0.00205702    -0.56710715    -0.09480047    -1.05772009
Ti      2.99696800     0.00664498     4.62814099    -0.25324707    -0.22499886     0.00463570
Ti      5.88702102     4.62711000     4.61733303     0.29810641    -0.74280046    -0.28291247
Ti      0.00365402     9.22266198     0.11402299    -0.20693249     0.55499211    -0.15965220
O       4.36483002     5.60362401     0.82503798     0.87389592     0.32104889     1.55171584
O       4.41188202     0.91119697     0.84031098     0.70460363     0.42212413     0.51648905
O       1.51645197     0.91046099     0.95298102    -0.26158002    -0.13318988    -0.66380817
O       4.45563202     8.33989802     3.79633299     0.06606658     0.30659208    -1.01115200
O       4.42650599     3.80963899     3.67331097     0.21637898    -1.10685467    -0.45424699
O       1.48924999     8.28434298     3.60793001    -0.37503976     2.66109302     2.04096713
O       1.49363300     3.74108398     3.73389097    -0.28561881     0.02423214    -0.00635963
O       2.93930498     6.06649202     3.35938001     0.00899064    -0.11855824    -1.04093747
O       3.01010001     1.52948201     3.23516999    -0.34832239    -1.54212511     0.95279873
O       0.01251001     6.05642400     3.30712598    -0.25448454    -0.03010352    -0.73739317
O       2.89635198     7.79381202     1.43690002     0.81617000     0.47283453    -1.07537561
O       2.99651899     3.13290099     1.38838499     0.01931516     1.70573758    -1.39411024
O       0.04707899     7.94829198     1.31485402    -0.36569868    -1.96457268     1.54686340
O       0.02957799     3.25832599     1.36026700    -0.25836922    -0.25354223     0.61153789
