# total energy = -4984.98919298 eV

CRYSTAL
PRIMVEC
        3.89062072     0.00000000     0.00000000
       -0.00000725     3.18323495     0.00000000
       -1.94533632    -1.59165385     4.55950136
PRIMCOORD
6 1
Ti     -0.00016886     2.38754486     1.13987546    -0.00290406    -0.00949534     8.25286908
Ti      1.94544602    -0.79596395     3.41962604     0.00290406     0.00949534    -8.25286908
O       0.00004013     0.79580204     0.74270557     0.00255902     0.00501494    -1.38672346
O       1.94523692     0.79577877     3.81679599    -0.00255902    -0.00501494     1.38672346
O      -0.00001882    -0.79579480     3.02245615     0.00017792    -0.00035944     1.58869449
O       1.94529578     2.38737560     1.53704536    -0.00017792     0.00035944    -1.58869449
