# total energy = -19517.42479491 eV

CRYSTAL
PRIMVEC
        7.60600008     0.00000000     0.00000000
        0.00000000     7.60600008     0.00000000
       -1.89786986    -1.89786986     4.85670466
PRIMCOORD
23 1
Ti      3.81121801     6.75400301     1.23535302    -0.74647354     0.23923481     0.32220280
Ti      3.71216100     2.97954701     1.13862000     0.62525241    -0.31178006     1.73008233
Ti     -0.15281898     6.55031999     1.17597700     1.43054510    -0.71577867     0.62845909
Ti      0.05232902     2.69093299     1.23809701    -1.57176480     0.04155110    -0.51609464
Ti      5.72790123     2.76612924     3.53530583    -1.60583964     0.08737049     1.77065538
Ti      5.73562420    -1.08590580     3.70569683    -0.22027369     0.57145437    -0.19280221
Ti      1.95396223     2.92943720     3.64483880     1.60098385     0.35589480     0.60882743
Ti      1.82577322    -0.91618077     3.63150079     0.64833270    -0.43280887    -1.15269925
O       4.26482298     4.73764798     0.73362800    -1.70449188     0.44647763     0.32117230
O       3.77539101     1.09907099     0.84654998    -0.30197875    -0.77184803    -0.09945005
O      -0.24669598     4.81778299     0.82328597     0.68793104    -0.88825091    -0.42557455
O       0.24875400     0.80949398     0.83785602    -0.47662665     1.50616230    -0.99546672
O       5.82100420     4.66543725     3.94618784    -0.38147549    -0.07150189     0.09831928
O       5.49452121     0.91364421     4.31577883     0.83342906    -0.04681903    -3.34646607
O       1.95527120     4.82066224     4.13067580    -0.50352066    -0.79259041    -0.08865913
O       1.91778423     0.92865623     4.01421479    -0.84372093     1.45986443    -0.15300229
O       3.79932925     2.94229224     3.23818482    -0.11577322    -0.34890269    -1.62328124
O       3.79035323    -0.99734677     3.16115381     0.47910211    -0.29909937     0.67253219
O      -0.00018680     6.34493021     3.19446981    -0.53193624     1.27035323     0.15382787
O       5.70116201     6.95563198     1.63249700    -0.31304478    -0.14829434     0.65956328
O       5.85203098     2.81082403     1.67395698    -1.02890599    -0.62104866     0.72719515
O       1.86546998     6.70631499     1.59507702     1.10334922    -0.64505223     0.53526788
O       1.71698999     3.14846298     1.67409700     2.93689998     0.11541146     0.36539092
