# total energy = -19515.38343176 eV

CRYSTAL
PRIMVEC
        5.93400000     0.00000000     0.00000000
        0.00000000     9.29699974     0.00000000
        0.00000000     0.00000000     4.64899994
PRIMCOORD
23 1
Ti      4.49074901     7.02241600     2.14312701    -0.75568504     1.10039965    -0.60347747
Ti      4.58980200     2.29611797     2.31911602     0.12407480    -0.35206411     0.35296400
Ti      1.39086599     6.87484000     2.41226100     0.51520633     1.21999893    -1.24021706
Ti      1.46492800     2.34642500     2.44445202    -2.49688842     0.69271921    -1.48028980
Ti      3.06041799     4.63390500     0.41284599    -2.16660516     0.93715974    -2.35835065
Ti      2.88468399     0.19718398     4.46432698    -0.41819111    -0.88088315     0.98047770
Ti      5.87316399     4.55630201     4.45712303     0.37182871     0.60919689     0.18740984
Ti      5.87238901     9.21502802     4.64851099     0.35144962    -0.66022894    -0.28686400
O       4.48525901     5.76012299     0.59957799     0.04249187     0.34709520     1.05471679
O       4.39269300     0.89111200     0.77591599    -0.26947022    -0.07469623     0.74481749
O       1.54843000     5.72487598     0.80693302     0.05330927    -1.32574844    -0.22342406
O       1.59466802     0.97578999     0.94265699     0.08782017    -0.52971610    -0.73159713
O       4.52708899     8.27363100     3.55004400    -0.65411383     1.17935929     1.92982524
O       4.40482999     3.77975799     3.65818503     0.09478915    -0.11491936     1.19499263
O       1.48462403     8.18910198     3.77469499     0.33218999     1.33556492     0.99738785
O       1.39560699     3.57821100     4.08569298     1.29828365     0.34182983    -1.74514515
O       2.88229402     1.83730902     3.20747698     3.15312881    -4.64723778     3.03234091
O       5.82614802     5.86166502     3.01165298     0.08927465    -0.02140084     0.05401247
O       0.09944500     1.30707903     3.33913602    -0.06044486     0.91241723    -1.36520152
O       2.78724198     7.78569698     1.52323899     2.01682575    -0.21998161     0.27816004
O       3.24715400     3.36106999     1.55069699    -1.66124822    -0.51401051    -0.06842916
O       0.06466699     7.93883802     1.52388998    -0.33354265    -0.01271257    -0.91743834
O       5.88059999     3.18399501     1.41621099     0.28551700     0.67785874     0.21332939
