# total energy = -19906.12830186 eV

CRYSTAL
PRIMVEC
        6.63144045     0.00000000     0.00000000
        3.02302664     6.37766934     0.00000000
        0.00000000     0.00000000    12.19678617
PRIMCOORD
24 1
Ti      4.19502093     3.77940091     4.52492065    -0.13965800    -2.16705510     0.41993098
Ti      5.45944594     2.59826835     7.67186559     0.13965800     2.16705510    -0.41993098
Ti      6.95077376     2.59827050     1.57342375    -0.31601826    -1.31193184     0.35764187
Ti      2.70369322     3.77939900    10.62336268     0.31601826     1.31193184    -0.35764187
Ti      2.68350777     0.59056634     1.57347263    -0.13965800    -2.16705510    -0.41993098
Ti      6.97095914     5.78710311    10.62331379     0.13965800     2.16705510     0.41993098
Ti      1.19217990     0.59056399     7.67181670     0.31601826     1.31193184     0.35764187
Ti      8.46228708     5.78710545     4.52496959    -0.31601826    -1.31193184    -0.35764187
O       3.16335177     2.24568577     6.22392663     1.79295020     2.01380496    -0.84044920
O       6.49111509     4.13198349     5.97285967    -1.79295020    -2.01380496     0.84044920
O       2.28133747     2.24571153     0.12557277    -0.00743383    -1.02770837     1.73832529
O       7.37312949     4.13195784    12.07121320     0.00743383     1.02770837    -1.73832529
O       4.97960190     0.94314879     0.12553315    -1.79295020    -2.01380496    -0.84044920
O       4.67486498     5.43452053    12.07125275     1.79295020     2.01380496     0.84044920
O       5.86161629     0.94312308     6.22396618     0.00743383     1.02770837     1.73832529
O       3.79285053     5.43454626     5.97282005    -0.00743383    -1.02770837    -1.73832529
O       2.07971169     3.87926006     3.29465624     0.64674504     2.99904408     2.81195126
O       7.57475511     2.49840921     8.90213006    -0.64674504    -2.99904408    -2.81195126
O       4.74089114     2.49834986     2.80377568     0.55852995     2.15628398     1.83179110
O       4.91357573     3.87931940     9.39301036    -0.55852995    -2.15628398    -1.83179110
O       0.56819848     0.69042530     2.80373671     0.64674504     2.99904408    -2.81195126
O       9.08626832     5.68724397     9.39304932    -0.64674504    -2.99904408     2.81195126
O       3.40206252     0.69048464     8.90216889    -0.55852995    -2.15628398     1.83179110
O       6.25240434     5.68718462     3.29461727     0.55852995     2.15628398    -1.83179110
