# total energy = -19961.65983464 eV

CRYSTAL
PRIMVEC
        7.60600008     0.00000000     0.00000000
        0.00000000     7.60600008     0.00000000
       -1.89786986    -1.89786986     4.85670466
PRIMCOORD
24 1
Ti      3.70056598     6.72094002     1.26448798     0.51363847    -1.10301858     0.69615241
Ti      3.81762502     2.92683698     1.24434199     0.01102798     0.47725297    -1.09230659
Ti      0.05996197     6.57538998     1.19543702    -0.92787522     0.04552808    -0.43895432
Ti      0.05604400     2.73584300     1.11739899    -0.39696691     0.38054732     1.10161450
Ti      5.71786623     2.79311924     3.62252483     0.83677303     0.19429422    -0.21714054
Ti      5.72797823    -1.03256579     3.57405182    -0.30467892    -0.00079473    -0.28322075
Ti      1.93403823     2.96041820     3.63549279    -0.97568413    -0.69460615     0.51536779
Ti      1.83448623    -0.93162576     3.72528280     0.43911887     0.64679826    -0.35466170
O       3.62864302     4.79418798     0.73035800     0.63962257    -0.04123100     0.66385034
O       3.77150198     0.93231300     0.85099899    -0.03435792     0.90466098     0.22897225
O       0.14479702     4.67114898     0.74063500    -0.52392726     0.30916241    -0.45375231
O       0.07610299     0.89000702     0.82924800    -0.12092700     0.43135234    -0.39737108
O       5.81419221     4.76123622     4.04315179    -0.27314999    -0.74640669     0.24542577
O       5.63317724     0.85501920     3.95494181    -0.16461083     0.96956182     0.55670189
O       1.73794123     4.81469624     4.19213482     0.22329011    -0.29692499    -1.39666232
O       1.90010220     0.99502823     4.15282579     0.29287576    -0.28365526    -0.93294313
O       3.80762225     3.04807620     3.15076580    -0.09920194    -0.18986215     1.73981936
O       3.72765621    -1.06115877     3.21194779     0.28260394     0.25578604     0.28847660
O      -0.02952280     2.88109125     3.11698079     0.08905276    -0.29794392     0.43463255
O       0.01092920    -0.79817080     3.18131679     0.20369521    -0.39267882     0.68144852
O       5.77107299     6.53758698     1.67051002    -1.13088060    -0.01736549    -0.51905553
O       5.67070702     2.86733402     1.63458497     0.62190149    -0.17702206    -0.58727052
O       1.83722298     6.59864202     1.64388500     1.10376857     0.19245383     0.39968353
O       1.90468001     2.91960498     1.70740199    -0.30510778    -0.56588793    -0.87880699
