# total energy = -19074.79570783 eV

CRYSTAL
PRIMVEC
        7.60600008     0.00000000     0.00000000
        0.00000000     7.60600008     0.00000000
       -1.89786986    -1.89786986     4.85670466
PRIMCOORD
22 1
Ti      3.89170602     6.43337902     1.33947600     1.15937255    -0.78393273    -1.35157235
Ti      3.74667801     2.58178701     1.12784198     0.42140551     1.49522945     1.68848315
Ti      0.27830897     6.77467199     1.07355501    -2.41235026     0.59066849    -0.01563334
Ti     -0.03178101     3.02914499     1.05370801     0.02723699    -0.61506878     0.45600897
Ti      5.71023021     3.09829724     3.44948683    -0.88150433    -0.42372181     0.59830287
Ti      6.08893723    -0.62892975     3.66319983    -0.46379427    -2.19087638    -0.54010130
Ti      1.82774023     2.71734825     3.65935684     0.66351610     0.68242940    -0.64194865
Ti      1.19772423    -1.23628977     3.90266984     2.13098200     0.50081200    -0.71809987
O       4.12322700     4.62314001     0.82799999    -0.64491647     0.38437389     0.02719174
O       3.92873801     0.72334900     0.84120498    -1.14135143     0.09106157     0.44354400
O       0.12771799     4.87927402     0.55259599    -0.44419037     0.28999560     0.45151622
O       0.22027802     1.12456600     0.89421398     0.35863637    -0.76731388    -0.68730035
O       5.76281222     5.01973724     3.98531780    -0.06871636    -0.02087659    -0.90770028
O       5.31753724     1.02200023     3.98184682     1.04913441     0.52893577     0.28283174
O       1.98744423     4.54814125     4.17728383    -1.08701885     1.42994938     0.50654119
O       1.52952625     0.83293923     4.15446380    -0.22605302    -0.83117831    -1.37572428
O       3.74237824     2.87290022     3.02051480    -0.23096948    -0.09994190     1.20269823
O      -0.02862875     3.01608225     3.31819081    -0.07517831    -0.18059615    -0.82232574
O       5.96785999     6.73602702     1.76118201    -0.54576827    -0.13445049     0.29942564
O       5.72284002     2.64403699     1.55337802     0.22680712     0.66784815     0.22866140
O       1.81894101     6.46677698     2.07052998     1.58795504     0.03708303     0.33708949
O       1.80606100     3.04298599     1.57254598     0.59676561    -0.65042969     0.53811152
