# total energy = -19930.88385654 eV

CRYSTAL
PRIMVEC
        4.88238848     0.00000000     0.00000000
        1.99861434     4.79660982     0.00000000
        0.00000000     0.00000000     8.92572881
PRIMCOORD
24 1
Ti      2.95400804     2.84246663     3.31138173     4.46262967    -3.78841958     1.27279064
Ti      3.92699485     1.95414333     5.61434719    -4.46262967     3.78841958    -1.27279064
Ti      5.02498275     1.95414496     1.15144705    -9.09079783     2.03853615     2.56816020
Ti      1.85602018     2.84246519     7.77428192     9.09079783    -2.03853615    -2.56816020
Ti      1.95470097     0.44416170     1.15148283     4.46282611    -3.78804600    -1.26264455
Ti      4.92630196     4.35244840     7.77424613    -4.46282611     3.78804600     1.26264455
Ti      0.85671299     0.44415993     5.61431135     9.09186844    -2.03679628     2.54987785
Ti      6.02428993     4.35245017     3.31141751    -9.09186844     2.03679628    -2.54987785
O       2.24905285     1.68896791     4.55473111    -1.64676467    -0.17529891    -1.25634740
O       4.63194999     3.10764206     4.37099780     1.64676467     0.17529891     1.25634740
O       1.59967018     1.68898729     0.09189538     2.00501718    -0.37534906    -1.68982013
O       5.28133278     3.10762275     8.83383323    -2.00501718     0.37534906     1.68982013
O       3.63264290     0.70933703     0.09186641     1.64614658     0.17479163    -1.25663279
O       3.24835999     4.08727293     8.83386221    -1.64614658    -0.17479163     1.25663279
O       4.28202563     0.70931769     4.55476004    -2.00503312     0.37539457    -1.68965172
O       2.59897718     4.08729234     4.37096883     2.00503312    -0.37539457     1.68965172
O       1.39305902     2.91757014     2.41106205    -0.10295884    -3.35915395    -3.16540532
O       5.48794382     1.87903983     6.51466687     0.10295884     3.35915395     3.16540532
O       3.40151759     1.87899519     2.05183080     2.41332471    -3.15994095    -4.10983897
O       3.47948525     2.91761478     6.87389796    -2.41332471     3.15994095     4.10983897
O       0.39375192     0.51926507     2.05180226    -0.10319126    -3.35951725     3.16500474
O       6.48725097     4.27734489     6.87392645     0.10319126     3.35951725    -3.16500474
O       2.48017816     0.51930975     6.51469531    -2.41333474     3.16029988    -4.11004620
O       4.40082468     4.27730022     2.41103356     2.41333474    -3.16029988     4.11004620
