# total energy = -19960.96002243 eV

CRYSTAL
PRIMVEC
        7.60600008     0.00000000     0.00000000
        0.00000000     7.60600008     0.00000000
       -1.89786986    -1.89786986     4.85670466
PRIMCOORD
24 1
Ti      3.75500102     6.61388699     1.25180101     0.31481756    -1.85452017     0.07903060
Ti      3.74836302     2.75250599     1.18775702     0.67639167     1.60775434     0.99933263
Ti      0.05722301     6.71917400     1.28875801     0.00678489     0.06616788    -0.60540374
Ti      0.02583200     2.93882200     1.11852598    -0.90273805     0.04959300     0.31316948
Ti      5.70587121     3.03027224     3.62521379    -0.24001925    -0.15642983    -0.84620050
Ti      5.73239125    -0.87187275     3.62771881    -0.84146530    -0.23051388    -0.41044952
Ti      1.78801621     2.75094624     3.64800482     0.81469882     0.54805141     0.44734846
Ti      1.86026521    -1.06429277     3.74691583     1.17864503    -0.41681454    -1.62486170
O       3.72817300     4.64515600     0.69701799    -0.29314418     0.30164991     0.98881630
O       3.75414100     0.83620197     0.78583801    -0.01384720     1.19899275     1.21748388
O       0.18104101     4.83366899     0.78697299    -0.71105401    -0.23655726    -0.78484521
O       0.15817399     0.97988799     0.81187099    -0.87185986     0.38192466    -0.65819648
O       5.96436123     4.91141820     4.00471579    -0.63344858    -1.54459902     0.61838448
O       5.76026323     1.05240925     3.85678382    -0.48901372    -0.60106398     1.47091915
O       1.75107620     4.70899325     4.10984183     0.07236732    -0.42930214    -0.18037144
O       1.98150723     0.89503421     4.09389984    -0.14229570    -0.78836043    -0.51210069
O       3.79322222     2.86372625     3.14976682     0.03487986     0.20547724     0.37365650
O       3.76289724     6.32955725     3.22293880     1.12144080     1.20204337     0.45117169
O      -0.00855378     2.90331124     3.17115981    -0.92473616    -0.20893949    -0.01450745
O       0.03709321    -0.82759776     3.24097480    -0.63600400     0.14370415    -0.61547810
O       5.67364702     6.56330198     1.53169799     1.03898163     0.47907614     0.90547782
O       5.68924103     3.02592003     1.58354900     0.30816560    -0.60140311     0.00923566
O       1.93574102     6.47147401     1.71732702    -0.97352260     0.74721453    -0.28187066
O       1.77018299     2.75790498     1.70124400     2.10597544     0.13685499    -1.33974116
