# total energy = -19945.11583997 eV

CRYSTAL
PRIMVEC
        5.17269266     0.00000000     0.00000000
        2.11745087     5.08181365     0.00000000
        0.00000000     0.00000000     9.45644782
PRIMCOORD
24 1
Ti      3.12965176     3.01147816     3.50827469     2.77402131    -3.53638042     1.21021485
Ti      4.16049184     2.07033563     5.94817323    -2.77402131     3.53638042    -1.21021485
Ti      5.32376551     2.07033736     1.21991146    -5.81444423     0.61376652     1.61312101
Ti      1.96637814     3.01147663     8.23653652     5.81444423    -0.61376652    -1.61312101
Ti      2.07092643     0.47057131     1.21994937     2.77358114    -3.53634365    -1.20959213
Ti      5.21921721     4.61124263     8.23649861    -2.77358114     3.53634365     1.20959213
Ti      0.90765269     0.47056944     5.94813527     5.81424137    -0.61416144     1.61076742
Ti      6.38249095     4.61124450     3.50831260    -5.81424137     0.61416144    -1.61076742
O       2.38278032     1.78939303     4.82555296     0.00376590     1.00473324    -1.14718295
O       4.90736323     3.29242077     4.63089497    -0.00376590    -1.00473324     1.14718295
O       1.69478571     1.78941356     0.09735943     1.15170835    -0.67610037    -0.17677112
O       5.59535797     3.29240032     9.35908818    -1.15170835     0.67610037     0.17677112
O       3.84863788     0.75151383     0.09732873    -0.00340106    -1.00430129    -1.14703151
O       3.44150572     4.33029997     9.35911888     0.00340106     1.00430129     1.14703151
O       4.53663256     0.75149333     4.82558361    -1.15180656     0.67566405    -0.17717941
O       2.75351096     4.33032053     4.63086427     1.15180656    -0.67566405     0.17717941
O       1.47588956     3.09104728     2.55442249     0.23089595    -0.68384967    -0.65709245
O       5.81425399     1.99076652     6.90202544    -0.23089595     0.68384967     0.65709245
O       3.60376999     1.99071923     2.17383155     1.91727542    -0.96076530    -1.87355740
O       3.68637357     3.09109458     7.28261622    -1.91727542     0.96076530     1.87355740
O       0.41716420     0.55014029     2.17380132     0.23112015    -0.68359179     0.65677698
O       6.87297941     4.53167351     7.28264640    -0.23112015     0.68359179    -0.65677698
O       2.62764822     0.55018763     6.90205557    -1.91735821     0.96113297    -1.87313034
O       4.66249534     4.53162617     2.55439231     1.91735821    -0.96113297     1.87313034
