# total energy = -19071.87738464 eV

CRYSTAL
PRIMVEC
        5.17600016     0.00000000     0.00000000
        0.00000000     5.50899976     0.00000000
        0.00000000     0.00000000     9.26300011
PRIMCOORD
22 1
Ti      1.49849101     3.20227199     3.59071302    -0.63285825     0.68981824     0.65645019
Ti      4.26749199     2.50529502     5.90891901    -0.40314038    -0.08527761    -0.58191722
Ti      4.10477898     2.04709102     1.42989900     0.80544927    -0.00029516     2.09799345
Ti      1.20393698     3.20439998     8.14376599    -1.00240742    -0.51524978     0.14508663
Ti      1.59602298     0.42419198     1.18624802    -1.96635214     0.38744508     0.89886545
Ti      3.30401399     5.17311598     8.00148599     1.43292955     0.47724423    -0.84693044
Ti      1.67807001     0.39775402     5.85401798    -3.00273259    -0.87293124    -1.79149161
Ti      3.96015600     4.94643698     3.52051898     1.25734473    -0.38920577     0.91999067
O       3.27305199     3.33854101     4.42134699    -1.50492894    -1.27538823     1.50522308
O       0.36635999     2.01210701     0.29827398     1.56822439     0.07065317    -1.48767992
O       4.68698302     3.67743602     7.34601303    -1.13525482    -0.19849464     0.30109558
O       3.24237199     0.69303302     0.39132599     1.71563684     1.47092661    -2.03002425
O       2.09819499     4.44217700     0.00314601    -1.16067482    -2.42624785     0.05041190
O       3.21332402     0.29298100     5.07763500     2.32891716     0.55090816    -2.72332916
O       0.43367399     4.74369500     4.72011401     0.53807861    -0.20547698    -0.49918449
O       4.82317499     3.37858502     2.76601801     1.17023290    -0.21575266    -2.20506194
O       0.91360801     2.07873799     5.16573200    -1.53941928     0.19445209    -0.22826262
O       2.35945298     1.74604801     2.22610698    -0.74601717     3.18495728     1.69162890
O       1.99257000     4.27981197     6.84181501     0.45397471    -0.21012528     0.00647944
O       4.88733900     0.72209501     2.42015903     0.38314619    -0.54724460    -0.23696195
O       2.76814900     1.35547001     7.01326198     0.94636866     1.99540871     3.13024984
O       2.17571602     4.85620401     2.55215801     0.49348230    -2.08012402     1.22736874
