# total energy = -19955.41125767 eV

CRYSTAL
PRIMVEC
        5.93400000     0.00000000     0.00000000
        0.00000000     9.29699974     0.00000000
        0.00000000     0.00000000     4.64899994
PRIMCOORD
24 1
Ti      4.37918300     6.61403701     2.05455602     1.28138276     2.85927141     2.84178199
Ti      4.44315402     2.52564601     2.30274301    -0.72998737    -5.63409130     0.42688170
Ti      1.44266001     6.83061301     2.01537600    -1.40570387     0.81769107     0.68393066
Ti      1.46543902     2.57142900     2.31358199     1.57702528    -4.23876467     0.71282088
Ti      3.00904298     4.68217401     4.46105899    -1.32288732    -4.16142843    -0.09758291
Ti      2.96111301     9.05940800     0.43938598     2.86209834     5.11737548    -3.55763136
Ti      5.91162898     4.72822000     4.59333299     1.42798711    -3.85821272    -0.33070595
Ti      0.12401697     9.28063002     0.30662599    -2.65246928     3.27017755    -1.63767865
O       4.42719800     5.80699799     0.49789700    -0.18632997     0.15079449    -0.21186078
O       4.35005200     0.93520098     1.06411899     0.91826058     1.05656593     0.67555066
O       1.55359000     5.67045301     0.56798298    -0.56398377     1.60189222     1.19306070
O       1.56368401     0.88464699     1.19018800    -0.63524218     0.55754187    -0.85353920
O       4.48573098     8.49329402     4.11808498    -0.41618334    -1.26816574    -1.15267148
O       4.47442400     3.68765501     3.77322800     0.43248054     2.19017293     1.53848648
O       1.50663500     8.44325602     4.19530798    -0.21662838    -2.57555727    -2.76542534
O       1.48682397     3.62536900     3.87622500    -0.19812234     2.83128005     1.10711769
O       2.89299499     5.77037702     2.82664299     0.15681035     0.14348998     0.50738323
O       2.84932701     1.67840900     3.23473300     1.26595099     0.32984618    -0.38830074
O       0.00041302     5.77288500     2.97714999    -0.21487334     1.50129160    -1.26173926
O       0.11687102     1.59705699     3.08414497    -1.05788439    -0.47927335     1.40597383
O       2.90103102     7.98410601     1.80435700     0.62207247    -3.35668569     2.74924306
O       3.12923998     3.37423799     1.37332302    -1.42916622     2.61254414    -1.84075088
O       5.81347798     7.90102899     1.48059000     0.61092005    -2.85599762     2.88099955
O       5.90670499     3.33010698     1.42870502    -0.12552619     3.38824188    -2.62534361
