# total energy = -19904.68871411 eV

CRYSTAL
PRIMVEC
        6.67652421     0.00000000     0.00000000
        1.74916426     6.88719075     0.00000000
        0.00000000     0.00000000    12.04543703
PRIMCOORD
24 1
Ti      3.45647210     4.08134306     4.46877145    -0.32069793    -1.75974850     0.61041791
Ti      4.96921657     2.80584814     7.57666626     0.32069793     1.75974850    -0.61041791
Ti      6.47068275     2.80585052     1.55389931     0.25760766    -0.38272453    -0.27462734
Ti      1.95500595     4.08134095    10.49153853    -0.25760766     0.38272453     0.27462734
Ti      2.58189011     0.63774774     1.55394760    -0.32069793    -1.75974850    -0.61041791
Ti      5.84379859     6.24944373    10.49149024     0.32069793     1.75974850     0.61041791
Ti      1.08042383     0.63774510     7.57661796    -0.25760766     0.38272453    -0.27462734
Ti      7.34526487     6.24944631     4.46881975     0.25760766    -0.38272453     0.27462734
O       2.72907255     2.42509709     6.14669460     1.75987037     1.93378166    -0.56616021
O       5.69661605     4.46209412     5.89874311    -1.75987037    -1.93378166     0.56616021
O       1.84105665     2.42512489     0.12401456    -0.78637914     0.16485688     0.90727528
O       6.58463210     4.46206644    11.92142281     0.78637914    -0.16485688    -0.90727528
O       4.82203404     1.01849859     0.12397548    -1.75987037    -1.93378166    -0.56616021
O       3.60365463     5.86869261    11.92146189     1.75987037     1.93378166     0.56616021
O       5.71005008     1.01847085     6.14673369     0.78637914    -0.16485688     0.90727528
O       2.71563853     5.86872043     5.89870402    -0.78637914     0.16485688    -0.90727528
O       1.30651443     4.18917999     3.25377324     0.52477701     1.58741588     1.71367097
O       7.11917418     2.69801123     8.79166447    -0.52477701    -1.58741588    -1.71367097
O       4.26605613     2.69794700     2.76898395     0.56157722     1.65528171     0.90546882
O       4.15963255     4.18924427     9.27645355    -0.56157722    -1.65528171    -0.90546882
O       0.43193241     0.74558446     2.76894548     0.52477701     1.58741588    -1.71367097
O       7.99375627     6.14160681     9.27649203    -0.52477701    -1.58741588     1.71367097
O       3.28505053     0.74564868     8.79170288    -0.56157722    -1.65528171     0.90546882
O       5.14063814     6.14154253     3.25373477     0.56157722     1.65528171    -0.90546882
