# total energy = -19954.05297539 eV

CRYSTAL
PRIMVEC
        5.92235475     0.00000000     0.00000000
        0.00002502     4.65886956     0.00000000
        0.00000000     0.00000000     9.42930110
PRIMCOORD
24 1
Ti      2.14658359     2.76084182     3.49820346    -0.04041956     0.95072591    -1.65742781
Ti      3.77579623     1.89802789     5.93109770     0.04041956    -0.95072591     1.65742781
Ti      5.10765868     1.89802951     1.21640945    -0.03882856    -0.95055673     1.66245227
Ti      0.81472114     2.76084041     8.21289181     0.03882856     0.95055673    -1.66245227
Ti      2.14657119     0.43140715     1.21644725    -0.04065995     0.95034153     1.66137446
Ti      3.77580864     4.22746272     8.21285401     0.04065995    -0.95034153    -1.66137446
Ti      0.81470873     0.43140537     5.93105989     0.03882213     0.95092800     1.65860101
Ti      5.10767109     4.22746450     3.49824126    -0.03882213    -0.95092800    -1.65860101
O       1.87447151     1.64046720     4.81170018     0.90634968    -0.69836664     1.06066092
O       4.04790836     3.01840251     4.61760098    -0.90634968     0.69836664    -1.06066092
O       1.08675816     1.64048599     0.09707996    -0.90603112    -0.69858313     1.06050177
O       4.83562177     3.01838377     9.33222094     0.90603112     0.69858313    -1.06050177
O       4.04789596     0.68896768     0.09704937    -0.90639879     0.69828642     1.06042644
O       1.87448392     3.96990203     9.33225153     0.90639879    -0.69828642    -1.06042644
O       4.83560936     0.68894894     4.81173077     0.90611597     0.69854328     1.06051463
O       1.08677046     3.96992082     4.61757038    -0.90611597    -0.69854328    -1.06051463
O       0.21518808     2.83378855     2.54708947     0.34443282    -0.26211172     0.61549816
O       5.70719180     1.82508116     6.88221169    -0.34443282     0.26211172    -0.61549816
O       3.17637183     1.82503771     2.16759109     0.34462951     0.26240354    -0.61572467
O       2.74600804     2.83383206     7.26170990    -0.34462951    -0.26240354     0.61572467
O       0.21517567     0.50435378     2.16756098     0.34454132    -0.26215569    -0.61530558
O       5.70720421     4.15451599     7.26174002    -0.34454132     0.26215569     0.61530558
O       2.74599564     0.50439723     6.88224175    -0.34467450    -0.26222177    -0.61548479
O       3.17638424     4.15447248     2.54705935     0.34467450     0.26222177     0.61548479
