# total energy = -39035.32814507 eV

CRYSTAL
PRIMVEC
        7.60600008     0.00000000     0.00000000
        0.00000000     7.60600008     0.00000000
       -3.79573973    -3.79573973     9.71340985
PRIMCOORD
46 1
Ti      2.06132346     4.85204547     6.01791762     0.07602446     0.16611518     0.56680350
Ti      3.71190101     6.83798699     1.14963900     0.71888662     0.78808146     0.03374111
Ti      1.80253943     0.79078147     6.08562161     1.35081619    -0.50647074    -0.09417003
Ti      3.65854502     2.93085503     1.31394600     0.70570406    -0.78270554    -0.60380452
Ti     -1.74927658     4.72227644     6.06952960    -0.65894493    -1.36852056     1.25341274
Ti     -0.07523800     6.66345401     1.12815600    -0.42017601    -0.00826044     1.13467015
Ti     -1.84192657     0.86118544     6.03078361    -0.78809998     0.21038342     1.22785160
Ti     -0.02524498     2.89909000     1.19393701    -0.28954438    -0.16954041     0.42291654
Ti      3.86817145     0.90668346     8.45188060     0.30619690     0.36136200    -0.38475185
Ti      5.54236502     2.72412299     3.63924302    -0.37488164     0.15417420    -1.00152090
Ti      3.76993043    -2.83837056     8.53947865     0.57919571     0.38307909    -0.36545160
Ti      5.75003201    -1.03482299     3.78956000     0.70672324     0.10726903    -3.59799898
Ti      0.05355046     0.96655246     8.43594660    -0.80853357    -0.17333535     0.63666066
Ti      1.71915702     2.76604198     3.52701500     0.79257421     0.86478547     0.30861425
Ti      0.07926144    -2.76598557     8.52281062    -0.81557788     0.49666172     1.36692442
Ti      2.00839700    -0.94198202     3.53899298    -1.86885845    -0.35531245     1.35406453
O       2.17949144    -0.99944257     5.58549561    -0.36450260     0.51166669    -0.90194795
O       3.72803399     1.06255601     1.01775502     1.10997007    -1.32244380    -2.15879852
O      -1.87313453     2.66023246     5.61212863     0.53621122     1.14965069     1.38471209
O       0.32449398     4.82450798     0.73154701    -0.89483576    -0.56599335     0.47841640
O      -1.96963053    -1.09695555     5.64193263     0.04731654     0.76774532    -0.14853088
O      -0.18714697     1.02448102     0.82342102    -0.29705920    -1.14295348    -0.27673359
O       3.78400544     2.87426645     8.84065364    -0.23159555     0.38345010     0.31009007
O       5.64497498     4.54103699     4.07552400     0.03669634     2.43993358     0.76149753
O       3.82109446    -0.92814054     9.01515962    -0.10024272     0.86672485    -1.13215022
O       5.92710001     0.91819000     3.99997500    -0.48757956    -1.75321276     0.47199841
O      -0.07150857     2.85431144     8.80276365     0.42507627     0.86741725     1.19532147
O       2.05225997     4.61725899     4.07657801    -0.53126313     0.54364865    -0.00812083
O      -0.00478456    -0.78013755     9.09943264     0.17441342    -0.14619915     0.04582350
O       1.74387902     1.07580899     4.17131000    -0.46251489    -1.40231772     0.39136216
O       1.84250544     1.06754144     7.99361464     1.57170592     0.45396803     0.83843654
O       3.60634502     2.67833799     3.26566500     1.73051556     0.45367518     0.69240837
O       1.96225745    -2.43767654     8.10816765     0.27827163    -1.28239346     0.20107243
O       3.70043200    -0.61612102     3.22734399     1.93973479    -0.82633152    -0.05162469
O      -1.88272555     0.87712743     8.02596563     0.00944289     0.49150306    -0.26200914
O      -0.05413399     2.97477901     3.11500998    -1.09104340     0.12204800     0.46190143
O      -1.82400757    -2.63039855     8.13085263    -0.13806006    -0.64559164    -0.46597637
O       0.04411401    -0.96716699     3.14927399    -1.30001220    -0.48339637     0.61714778
O       3.87437944     4.68935543     6.54566064    -0.00935316    -0.69431355    -0.25278427
O       5.57689299     6.46846601     1.67117599     0.45165532    -0.13902757    -0.22618543
O       3.81878445     0.82079546     6.53147763     0.15075283     0.31386779    -0.80069659
O       5.48523399     2.93060801     1.73751000     1.57645475     0.51494922    -0.89776451
O       0.14455344     4.98499442     6.63609163    -0.86767719    -1.18996638    -1.89069226
O       1.83238497     6.90139999     1.51355198     0.51141395    -0.90793194     0.53027608
O       0.07729644     0.34761146     6.58329160    -1.46269625     1.03788248    -1.32253353
O       1.83968000     2.48477400     1.58337501    -1.52269965     1.41617546     0.15812316
