# total energy = -19071.39622430 eV

CRYSTAL
PRIMVEC
        5.17600016     0.00000000     0.00000000
        0.00000000     5.50899976     0.00000000
        0.00000000     0.00000000     9.26300011
PRIMCOORD
22 1
Ti      1.34129901     3.20675899     3.57102202     1.17703167    -0.77983722    -0.42172458
Ti      4.42435801     3.08511803     5.74193702    -0.05963599     0.40490905    -0.83502931
Ti      3.72778803     2.10614699     1.62419802     2.50305753     0.92887075     1.45196729
Ti      1.53742999     2.63892498     8.47815198    -1.00446739     0.25218880    -0.46610184
Ti      1.38537800     0.42262900     1.21212600    -0.66874778    -0.56351197     0.83285596
Ti      3.39288799     5.47203498     8.29461701     0.15688415    -0.28425793    -1.76973673
Ti      1.72537602     0.23659102     5.59402902    -0.58575742     0.83576979    -0.32634510
Ti      3.91433200     4.95429003     3.56829601    -0.01925243    -1.05152708    -1.51905073
O       3.19133200     3.34513498     4.27052798    -0.00494295    -0.79242072     0.93247776
O       0.25694201     1.78229501     0.23640200     0.12375573    -0.25027076    -0.06662014
O       0.29151502     2.79268198     7.14848799    -0.25463212     0.71768849     0.72380669
O       2.81218099     1.47631801     0.13434699     0.47404964    -0.49629046    -0.78660231
O       2.37328101     4.39845500     0.04093101    -0.91653588    -1.32156706     0.55862276
O       3.21008001     0.56815698     4.69333701     1.44696263     2.29826112     0.83666016
O       0.42502898     4.37391101     4.81968802    -0.69306014     1.42537204     1.80522182
O       5.02453100     3.29809001     2.60322700    -2.06617372     0.47611500    -2.12109816
O       0.94349197     1.80994098     4.76687598    -1.01195084    -0.83150587     1.09586294
O       2.00623499     1.83261998     2.29986301     0.45927144     1.60566558     0.56147900
O       3.24244200     4.61816902     6.58682999     0.67799476    -2.12799335     1.21247948
O       4.59665601     0.60311802     2.23233899     0.55961624    -0.66092802    -0.52857118
O       2.15964999     1.06082401     7.20513498    -0.48248646     1.50782966     0.68422711
O       2.01560699     4.99320001     2.86233398     0.18902012    -1.29255909    -1.85478114
