# total energy = -19915.59851248 eV

CRYSTAL
PRIMVEC
        7.57212614     0.00000000     0.00000000
        0.00002480     3.45387078     0.00000000
        0.00000000     0.00000000    11.52418415
PRIMCOORD
24 1
Ti      2.74454610     2.04676064     4.27539013    -0.26302832     0.18206682     1.75129574
Ti      4.82760450     1.40711019     7.24879419     0.26302832    -0.18206682    -1.75129574
Ti      6.53047956     1.40711137     1.48665594    -0.26349035    -0.18238641    -1.75079772
Ti      1.04167104     2.04675957    10.03752849     0.26349035     0.18238641     1.75079772
Ti      2.74453387     0.31982531     1.48670217    -0.26302832     0.18206682    -1.75129574
Ti      4.82761673     3.13404558    10.03748226     0.26302832    -0.18206682     1.75129574
Ti      1.04165880     0.31982402     7.24874796     0.26349035     0.18238641    -1.75079772
Ti      6.53049180     3.13404687     4.27543636    -0.26349035    -0.18238641     1.75079772
O       2.39663437     1.21616660     5.88070300     3.71355854     0.02868709    -0.16664251
O       5.17551623     2.23770417     5.64348131    -3.71355854    -0.02868709     0.16664251
O       1.38949025     1.21618054     0.11864792    -3.71513977     0.02894755    -0.16723078
O       6.18266040     2.23769030    11.40553606     3.71513977    -0.02894755     0.16723078
O       5.17550405     0.51076879     0.11861054    -3.71355854    -0.02868709    -0.16664251
O       2.39664655     2.94310205    11.40557344     3.71355854     0.02868709     0.16664251
O       6.18264823     0.51075485     5.88074039     3.71513977    -0.02894755    -0.16723078
O       1.38950232     2.94311598     5.64344393    -3.71513977     0.02894755     0.16723078
O       0.27512782     2.10083998     3.11296967    -0.56275787     0.04428650     0.37688247
O       7.29702278     1.35303080     8.41121465     0.56275787    -0.04428650    -0.37688247
O       4.06120052     1.35299862     2.64915913    -0.56257558    -0.04433586    -0.37808035
O       3.51095008     2.10087222     8.87502503     0.56257558     0.04433586     0.37808035
O       0.27511565     0.37390459     2.64912235    -0.56275787     0.04428650    -0.37688247
O       7.29703495     3.07996624     8.87506180     0.56275787    -0.04428650     0.37688247
O       3.51093790     0.37393677     8.41125137     0.56257558     0.04433586    -0.37808035
O       4.06121270     3.07993406     3.11293289    -0.56257558    -0.04433586     0.37808035
