# total energy = -19958.83946759 eV

CRYSTAL
PRIMVEC
        5.93400000     0.00000000     0.00000000
        0.00000000     9.29699974     0.00000000
        0.00000000     0.00000000     4.64899994
PRIMCOORD
24 1
Ti      4.44201999     6.77594000     2.12202400    -0.88727106     3.59512269     1.86785469
Ti      4.44774997     2.59442302     2.25247900     1.89040224    -4.67447785    -0.26884673
Ti      1.48728499     6.93838297     2.25948700     0.92868743     2.11712786     0.86138750
Ti      1.50577101     2.31143099     2.48372999    -1.75298213    -2.80140022     0.46695776
Ti      3.09198198     4.62167699     0.02611601    -4.95967681     0.17601367     0.12052410
Ti      2.93791499     0.13503799     0.13748200     1.62422715    -0.29495501    -0.96785075
Ti      5.90594398     4.63109698     4.45030701     3.92518510    -0.46328339     0.67770268
Ti      5.91638200     9.22970200     0.20665298    -1.48030985     1.17467602    -2.85803496
O       4.47109902     5.53662303     0.81414301     0.56758795    -0.50340882    -0.42449006
O       4.49580800     0.88615498     1.17136602    -0.90507287     0.06515049    -0.72551287
O       1.46624898     5.55687199     0.84432998     0.06776016    -0.73344164    -0.74716234
O       1.40509699     0.77126002     1.11026801     1.03553275     1.02060286     0.21588301
O       4.49573799     8.59490002     3.81090299    -0.72219641    -0.86135716    -0.30213790
O       4.35950501     3.78157201     3.70424202     0.79767091     0.43425846     0.34499846
O       1.40343601     8.33629300     3.70092302     0.61759206    -0.10273361    -0.19396101
O       1.50930300     3.70496599     3.72912901    -0.39890835     1.84582573     0.79317019
O       3.03901700     5.98396301     3.18439099     0.22440545     0.35864588    -0.49274542
O       2.88140701     1.51144998     3.49064999    -0.25252022     0.64415054    -1.14265755
O       0.04356801     5.97329501     3.02702601    -0.90613422    -0.78865353     1.22031749
O       5.84458900     1.58113299     3.28649003     0.74505918     0.73859928    -0.07956359
O       3.03911099     7.88297199     1.27592297     0.11334790    -2.27837286     1.89624122
O       2.90961300     3.05574398     1.35839901    -0.24537435     2.05672851    -1.06952635
O       0.04726902     7.81061700     1.32705399    -0.61330938    -1.93131519     1.58941980
O       5.85348299     3.26163600     1.35640999     0.58629710     1.20649652    -0.78196712
