# total energy = -19961.93570269 eV

CRYSTAL
PRIMVEC
        7.60600008     0.00000000     0.00000000
        0.00000000     7.60600008     0.00000000
       -1.89786986    -1.89786986     4.85670466
PRIMCOORD
24 1
Ti      3.85948199     6.69745302     1.18608900    -1.08979179     1.04515871     0.64607681
Ti      3.84601601     2.93902102     1.17135898    -0.64828822    -1.07078876     0.67545965
Ti     -0.03516499     6.56680402     1.22783500     0.96505467     0.80484069    -0.26700865
Ti      0.00798698     2.82334298     1.26574499     0.38621583    -0.71082776    -1.08667278
Ti      5.71118622     2.76047122     3.63039581    -0.75671348    -0.14300712     0.42849738
Ti      5.68244925    -1.03412675     3.65033479    -0.27427073     0.18008039     0.27196625
Ti      1.90644423     2.91508824     3.66221783     0.67979479     0.09525118    -0.98303723
Ti      1.88005125    -0.87101379     3.65679683     0.21191503    -0.00246106    -0.89348645
O       3.86173999     4.79226198     0.75958902    -0.26724082     0.60213150     0.31183533
O       3.79192600     0.96814698     0.75853601     0.08199714     0.64057773     0.19251579
O      -0.02096198     4.69986499     0.77293502    -0.00287449    -0.62058637     0.55684176
O      -0.03513499     0.85671601     0.69438401    -0.09828971     0.85315611     1.14598713
O       5.68684322     4.68686723     4.07286081     0.00614108    -0.36334612    -0.60128484
O       5.63808022     0.87018621     4.07511283     0.33967962     0.85621624     0.35996178
O       1.88317525     4.87861921     4.00234482     0.05952260    -1.68610462     0.21497619
O       1.93577520     1.06394621     4.06898681    -0.20775421    -0.85555572     0.06409891
O       3.81931622     2.82330425     3.21076381    -0.79042220     0.41615223     0.02691098
O       3.78195223    -0.81831377     3.19863279     0.02861793    -0.56791756    -0.27944096
O      -0.00013076     2.73312123     3.26543782     0.14473594     0.42163074    -0.55906422
O      -0.04676678    -0.97845477     3.16952682     0.01616736     0.15275624     0.58593509
O       5.67329300     6.63410198     1.60546102    -0.04523189    -0.10703815    -0.20283055
O       5.65198700     2.76640801     1.66623898     1.20206008     0.23802742    -0.38476033
O       1.85330801     6.76901397     1.67343002     0.39982520    -0.52770215    -0.49615625
O       1.90285000     2.81519799     1.60275999    -0.34084922     0.34935648     0.27267973
