# total energy = -19518.25698852 eV

CRYSTAL
PRIMVEC
        5.93400000     0.00000000     0.00000000
        0.00000000     9.29699974     0.00000000
        0.00000000     0.00000000     4.64899994
PRIMCOORD
23 1
Ti      4.53844101     7.01080199     2.19976898    -0.19903431     0.79070399     0.53168608
Ti      4.45948898     2.27900798     2.35462497     0.10561324     0.41751748    -0.43035192
Ti      1.43151903     7.01708401     2.25081903    -0.16854564     0.19545919    -0.44274876
Ti      1.48780301     2.32079600     2.37440297    -0.48557924     0.74155091    -0.73714198
Ti      2.94176200     4.54862301     0.12311901     0.04439320    -0.76815875     0.54022548
Ti      2.99472799     0.05912101     0.00467502     0.67991357    -0.47751240     0.23472304
Ti      5.90607998     4.66570798     0.06574599     0.00757062    -0.06191013    -0.45333399
Ti      0.06318001     9.29003101     4.49192601    -0.70794323    -0.25119044     0.45529112
O       4.40740100     5.54563999     1.04731898    -0.17340837    -0.40106345    -0.76802814
O       4.47105600     0.93206402     0.93344200    -0.24043320    -0.35369985    -0.44567570
O       1.50394598     5.53320798     0.96448301    -0.33287288     0.31831683     0.13360794
O       1.48999602     0.86313599     0.87405900    -0.22784945     0.26058809     0.14543142
O       4.44672898     8.38083702     3.72236798    -0.17435968     0.29448501    -0.32987343
O       4.33648998     3.70287902     3.87286599     0.89500906     0.26959646    -0.64600816
O       1.47432798     8.38807702     3.53175701     0.28009377     0.57550772     1.32914641
O       1.46464801     3.76486203     3.78861600     0.06391893     0.06979905    -0.10946167
O       2.87211201     1.41558100     3.16397300     0.89859369    -0.77122942     1.04882356
O       5.85785298     6.14578901     3.32582499     0.40097397    -0.60676874    -0.09302640
O       0.00040699     1.45949599     3.27262198     0.14025810    -0.34564972     0.14389236
O       2.99003599     7.85046098     1.36332602    -0.37611088    -0.44512986     0.52413500
O       3.01681601     3.28856900     1.47180100    -0.73564071    -0.51410898     0.44393146
O       0.00553202     7.74753002     1.27853902     0.30131001     0.76446047    -0.18861594
O       5.89445099     3.28365702     1.56992899     0.00412919     0.29843654    -0.88662828
