# total energy = -4988.21351308 eV

CRYSTAL
PRIMVEC
        3.57367819     0.00000000     0.00000000
        0.70765162     3.50291379     0.00000000
       -2.14069746    -1.75148353     4.58401481
PRIMCOORD
6 1
Ti      0.53061552     2.62731930     1.14600383     0.00080810    -0.00104155    -0.00191444
Ti      1.61001683    -0.87588904     3.43801113    -0.00080810     0.00104155     0.00191444
O       0.17695035     0.87572333     0.74669861     0.00038361     0.00131306     0.68679256
O       1.96368189     0.87570684     3.83731640    -0.00038361    -0.00131306    -0.68679256
O      -0.17692689    -0.87570414     3.03870591     0.00136320     0.00042449     0.68752070
O       2.31755903     2.62713422     1.54530904    -0.00136320    -0.00042449    -0.68752070
