# total energy = -19517.96719572 eV

CRYSTAL
PRIMVEC
        5.93400000     0.00000000     0.00000000
        0.00000000     9.29699974     0.00000000
        0.00000000     0.00000000     4.64899994
PRIMCOORD
23 1
Ti      4.51667801     7.05738700     2.26446899     1.20234933     0.09365092     0.20188618
Ti      4.41150101     2.23376899     2.32704801    -0.03902473     0.48293126    -0.18859666
Ti      1.44047202     7.08716899     2.19246803    -1.21299576     0.13612454     0.16833944
Ti      1.43258601     2.29451002     2.39043202     0.42362077     0.26130722    -0.61927177
Ti      2.99488600     4.59987901     0.18227002     0.20731455    -1.05089561     0.07178471
Ti      2.92264002     9.20795302     4.59058899     0.13297905     0.73154417     0.16339778
Ti      0.02976500     4.64241799     0.04065701    -0.22858890    -0.71941936    -0.64990210
Ti      5.90201198     0.09654098     4.60550999     0.15949407    -0.38982901     0.94602876
O       4.43891001     5.60958202     0.99527498    -0.17873416    -0.44332854    -0.79755033
O       4.40563498     0.93601100     0.80609602     0.31223360     0.25196435     1.02049153
O       1.50751401     5.56230500     0.97110301     0.18028325     0.38441478    -0.44224996
O       1.56263301     0.93447098     0.94478502    -0.23327448    -0.98238237    -0.58047946
O       4.57074199     8.33851898     3.70701999    -1.05168006     0.19738983     0.34976246
O       4.47088899     3.75967302     3.79236501    -0.25942055     0.28054037    -0.59638200
O       1.53584801     8.35190299     3.60470600    -0.13244734     0.15676922     1.03411144
O       1.47303801     3.61891198     3.92348899     0.08782120     1.15067348    -1.25192767
O       2.87661298     1.39172400     3.33139902     1.16775152     0.35321288    -1.11124405
O       0.00207702     6.10981502     3.12988901     0.45255546    -0.57486211     0.71211562
O       0.03447902     1.32010901     3.23788102    -0.60791237     0.97567590    -0.95152270
O       2.99433100     7.84371698     1.37289598    -0.09091578    -0.14537537     0.02071821
O       2.98011899     3.25562899     1.36334703     0.28183261    -0.85625635     1.68395467
O       5.90874200     8.02670499     1.41798500     0.29214299    -0.59800976    -0.16175793
O       0.05221498     3.15758499     1.34524001    -0.86538428     0.30416007     0.97829380
