# total energy = -19517.59405727 eV

CRYSTAL
PRIMVEC
        7.60600008     0.00000000     0.00000000
        0.00000000     7.60600008     0.00000000
       -1.89786986    -1.89786986     4.85670466
PRIMCOORD
23 1
Ti      3.82309999     6.67975500     1.12312601     0.78443718    -1.52255464     0.09799146
Ti      3.86983899     2.75028699     1.19559202    -1.10839861     2.16753616     0.28241393
Ti      0.17263900     6.72221200     1.22290201    -1.61812875    -0.65492450    -0.86926845
Ti     -0.01567799     2.81932700     1.14294899    -0.13722240     0.73987583     1.87087419
Ti      5.52013820     2.81060622     3.74617080     0.01857520     1.17809019     1.54215442
Ti      5.71997220    -0.94183380     3.47601179    -0.12050971    -0.50992811     1.12665757
Ti      1.93879321     2.89674521     3.62470382     0.16612032    -0.69225538     1.28649102
Ti      1.97687423    -0.88684979     3.60455381    -0.68312694    -0.23039998     0.25885259
O       3.88002899     4.65456202     0.71628401    -0.35445447     0.12954045     1.70822615
O       3.71287100     0.95347601     0.69336402     0.11691839    -0.42568537     0.37621501
O      -0.15522901     4.74680698     1.02613898     0.68108008    -0.03843132    -0.38232113
O       0.08695901     1.02367598     0.74522799     0.01939615    -2.17766734     0.19873966
O       5.51743024     4.68345224     4.14269680     1.39467769     1.56539951    -0.50091047
O       5.59830223     0.98338220     4.19700484     0.20528672    -0.44650154    -2.36665480
O       1.81775121     4.68289422     4.12187982    -0.43617496     1.70377120    -1.69521919
O       1.84944221     0.96773824     4.12908383     0.05880912    -0.78129966    -1.03487558
O       3.74937825     2.91874623     3.49618381    -0.36785404    -0.33289216    -1.36779448
O       3.80599624    -0.88077579     3.23684881    -0.41041352     0.05501931    -0.30498874
O      -0.00972977    -0.70576677     3.22383279     0.42895427    -0.71592060    -0.94611875
O       5.63423400     6.66775300     1.49015298     1.11844623     0.36154095     1.45745814
O       5.62438702     2.64828501     1.90324498     1.58013271    -0.12519734    -1.55977805
O       1.98347101     6.44298099     1.43995898    -1.21519662     0.59422973     1.51840359
O       1.84488202     2.76588000     1.76247198    -0.12135431     0.15865435    -0.69654810
