# total energy = -19946.08932876 eV

CRYSTAL
PRIMVEC
        5.79865500     0.00000000     0.00000000
        0.30841517     6.16381125     0.00000000
        0.00000000     0.00000000    10.38156262
PRIMCOORD
24 1
Ti      2.28450000     3.65266869     3.85148568     0.04467191    -0.96872698     0.64876516
Ti      3.82256992     2.51114233     6.53007705    -0.04467191     0.96872698    -0.64876516
Ti      5.12661397     2.51114444     1.33925420     0.00179206     0.42184774    -0.45297198
Ti      0.98045602     3.65266682     9.04230866    -0.00179206    -0.42184774     0.45297198
Ti      2.13029254     0.57076330     1.33929580     0.04467191    -0.96872698    -0.64876516
Ti      3.97677739     5.59304790     9.04226705    -0.04467191     0.96872698     0.64876516
Ti      0.82624855     0.57076101     6.53003539    -0.00179206    -0.42184774    -0.45297198
Ti      5.28082144     5.59305018     3.85152735     0.00179206     0.42184774     0.45297198
O       1.94390905     2.17038263     5.29763194     1.27817736     1.25972917    -0.11740947
O       4.16316087     3.99342839     5.08393079    -1.27817736    -1.25972917     0.11740947
O       1.17264991     2.17040750     0.10688400    -1.05639392     0.86381796     0.21483992
O       4.93442007     3.99340357    10.27467844     1.05639392    -0.86381796    -0.21483992
O       4.00895341     0.91152282     0.10685034    -1.27817736    -1.25972917    -0.11740947
O       2.09811652     5.25228820    10.27471210     1.27817736     1.25972917     0.11740947
O       4.78021261     0.91149800     5.29766566     1.05639392    -0.86381796     0.21483992
O       1.32685726     5.25231314     5.08389707    -1.05639392     0.86381796    -0.21483992
O       0.39827413     3.74917928     2.80431911     0.36302653     0.05342317     0.47632275
O       5.70879586     2.41463174     7.57724369    -0.36302653    -0.05342317    -0.47632275
O       3.23083415     2.41457431     2.38649527     0.47688376     0.51058657    -0.10066361
O       2.87623583     3.74923670     7.99506728    -0.47688376    -0.51058657     0.10066361
O       0.24406666     0.66727371     2.38646214     0.36302653     0.05342317    -0.47632275
O       5.86300332     5.49653731     7.99510042    -0.36302653    -0.05342317     0.47632275
O       2.72202837     0.66733114     7.57727676    -0.47688376    -0.51058657    -0.10066361
O       3.38504162     5.49647988     2.80428592     0.47688376     0.51058657     0.10066361
