# total energy = -4873.80708260 eV

CRYSTAL
PRIMVEC
        5.64767509     0.00000000     0.00000000
       -0.00000698     1.88255837     0.00000000
       -2.82387349    -0.94140168     6.40683544
PRIMCOORD
6 1
Ti     -0.00024170     1.41196367     1.60170847    -0.06493118    -0.04256797   123.02883600
Ti      2.82403617    -0.47080703     4.80512603     0.06493118     0.04256797  -123.02883600
O       0.00005963     0.47061919     1.04362097     0.06436991     0.04219516  -118.89839657
O       2.82373468     0.47053739     5.36321358    -0.06436991    -0.04219516   118.89839657
O      -0.00002591    -0.47069825     4.24703853    -0.00085309     0.00005348    -0.43197120
O       2.82382011     1.41185478     2.15979602     0.00085309    -0.00005348     0.43197120
