# total energy = -4986.59275933 eV

CRYSTAL
PRIMVEC
        4.11117138     0.00000000     0.00000000
        1.58121245     3.79493047     0.00000000
       -2.84623008    -1.89749068     5.35925310
PRIMCOORD
6 1
Ti      1.18579820     2.84634395     1.33981299     0.00006762    -0.00006762     0.00000000
Ti      1.66035566    -0.94890413     4.01943937    -0.00006762     0.00006762     0.00000000
O       0.39534585     0.94872765     0.87297841    -0.00060318    -0.00089423    -1.74678885
O       2.45080783     0.94871210     4.48627402     0.00060318     0.00089423     1.74678885
O      -0.39531034    -0.94870397     3.55260484    -0.00089423    -0.00060318    -1.74678885
O       3.24146396     2.84614368     1.80664764     0.00089423     0.00060318     1.74678885
