# total energy = -18974.85694236 eV

CRYSTAL
PRIMVEC
        7.60600008     0.00000000     0.00000000
        0.00000000     7.60600008     0.00000000
       -1.89786986    -1.89786986     4.85670466
PRIMCOORD
22 1
Ti      5.53771498     4.93116001     0.27288702   -11.87989635     7.34915607    -5.62817442
Ti      5.37345424     3.43372121     2.84496580    -5.96117354     7.25983514   -10.61021495
Ti     -0.33996675     4.22124624     4.81099280    -0.45161547     8.83147498    -0.86561696
Ti      0.21752302     3.35807898     1.22901300     2.59170869    -6.22547276     9.88830779
Ti     -1.74705377     2.60716624     4.72208483   -33.43586381    58.94966862    56.66999196
Ti      5.37054720     1.76919825     3.68476380   -13.54890982   -52.09040739   -39.82979788
Ti     -0.51037976     2.17810425     4.23016483    66.53215419   -14.85064775   -22.15161644
Ti     -0.68898079     0.19173023     4.24771579     2.95841421   -16.50573688    -3.62798037
O       4.40561900     4.29077499     1.51957301    -5.86214001     1.65065013    -0.46066472
O       4.61923600     7.15668902     0.79788197     0.90064594    -1.91597162    -0.07214544
O       1.24386700     5.00838501     1.26064801    -2.17448817     1.42724972     7.62275780
O       1.32410800     0.04053498     0.13464301    -0.88398879     8.96333431     0.73661901
O       6.37309700     4.43251300     1.67925198     8.89218775    14.12387914    10.78368888
O       6.02768099     1.41451503     2.00890099     1.13534121    -1.81712706     1.25043078
O       2.82730298     5.15495399     0.11079802    10.55177401    -2.59704656    -2.54828248
O       1.77164299     2.89052399     0.82293598     8.68986474    -3.53467372    -0.10929249
O       4.06780124     1.88523623     3.13790483   -23.46649477     3.50374385    -5.54858281
O       0.56547802     2.42806398     2.41314102     0.64232017    -4.31625055     9.54532944
O       4.54935121     4.39904021     3.89333483    -1.19485045     2.13008880     4.71521674
O       6.10145402     3.38644801     1.15706500    -6.04504090   -13.17105676    -8.56970830
O       0.78503223    -0.16662278     3.50462080    -0.41371045     0.25747448    -0.64589555
O       4.94957024    -0.21091677     4.53638081     2.42376159     2.57783552    -0.54436959
