# total energy = -19069.75635387 eV

CRYSTAL
PRIMVEC
        7.60600008     0.00000000     0.00000000
        0.00000000     7.60600008     0.00000000
       -1.89786986    -1.89786986     4.85670466
PRIMCOORD
22 1
Ti      3.99460798     6.54369999     1.22812001    -1.34714363    -0.10987151     0.35443159
Ti      3.94640401     2.57902502     0.93740300    -1.34158207     2.33811580     2.42647925
Ti     -0.21613599     6.59299697     1.01860302    -0.33913069     0.13430317     2.02742667
Ti     -0.09612103     3.08183400     1.21710598     1.13445058    -0.28503723    -1.87234332
Ti      5.82884724     2.76948523     3.54508180    -3.70910899    -0.89406263     0.79557726
Ti     -1.16893879    -0.50122579     4.10163080    -3.15601925     0.21813710    -0.57168603
Ti      1.83838225     2.90417624     3.71023781     1.50994748    -0.33204216     0.92509869
Ti      1.34962525    -0.86496678     3.85014180     3.37854291    -1.57143132    -1.83634195
O       3.62884500     4.57070097     0.80935999     0.88930249     2.78051129    -1.52940046
O       4.26285100     0.79287897     0.95203702    -1.24760796    -0.35167562    -0.34927087
O       0.35204998     4.79612699     0.99091001     1.21946131    -1.53465914    -0.01783703
O       7.11099800     0.71213600     0.63198501     2.32310493     1.08506841    -0.60581152
O       4.88488224     4.08692020     4.23597779     0.42592474     1.44082078    -0.82544552
O       5.13224424     0.89514925     4.16964780     2.64899854     2.05558000    -1.91325730
O       2.16075523     4.78911523     4.14795979    -1.53622545    -0.38764280     0.75499187
O       2.05063524     0.87126722     3.90461382     0.00368002     0.93968765    -0.46326051
O       3.41975024     2.98213923     2.77051781    -1.00059967    -1.40056731    -0.02548915
O      -0.05323777     3.20106023     3.20167879     1.70885684    -0.63636292     0.01863948
O       5.79856301     6.63116198     2.08311598    -0.43896898    -0.92188429     0.96006339
O       5.69917098     2.98343900     1.23933502     0.85005921     0.20047670     3.18200925
O       2.12083103     6.77196398     2.08552099     0.12164999    -0.67464615    -0.52822666
O       1.94805100     2.46377498     0.47426998    -2.09759184    -2.09281833    -0.90634762
