# total energy = -4975.64148562 eV

CRYSTAL
PRIMVEC
        2.81347089     0.00000000     0.00000000
        2.07448830     3.88966493     0.00000000
       -0.00001334    -0.00006010     4.56177750
PRIMCOORD
6 1
Ti      2.44397270     1.94480232     2.28088885     0.00000000     0.00000000     0.00000000
Ti      0.00000000     0.00000000     0.00000000     0.00000000     0.00000000     0.00000000
O       1.81101995     0.75802666     0.88902330   -11.51090563     4.59258227     6.82736000
O       3.07692548     3.13157808     3.67275445    11.51090563    -4.59258227    -6.82736000
O       0.63294710     1.18675151     3.16991303    11.50967484    -4.59184334     6.82559957
O       1.44152756     2.70285330     1.39186466   -11.50967484     4.59184334    -6.82559957
