# total energy = -19961.14645954 eV

CRYSTAL
PRIMVEC
        5.38019489     0.00000000     0.00000000
        0.00002678     5.18080617     0.00000000
        0.00000000     0.00000000     9.19380874
PRIMCOORD
24 1
Ti      1.95007777     3.07014089     3.41083755    -0.15272384     0.46302937    -0.75187595
Ti      3.43014389     2.11066517     5.78297150     0.15272384    -0.46302937     0.75187595
Ti      4.64008145     2.11066696     1.18603025    -0.14309866    -0.46308850     0.75262928
Ti      0.74014027     3.07013937     8.00777896     0.14309866     0.46308850    -0.75262928
Ti      1.95006443     0.47973791     1.18606713    -0.15313599     0.45638821     0.75135118
Ti      3.43015728     4.70106831     8.00774208     0.15313599    -0.45638821    -0.75135118
Ti      0.74012688     0.47973602     5.78293468     0.14330512     0.45649774     0.75265191
Ti      4.64009478     4.70107025     3.41087443    -0.14330512    -0.45649774    -0.75265191
O       1.70287510     1.82424986     4.69153035     0.19498508    -0.32869561     0.35290924
O       3.67734662     3.35655620     4.50227871    -0.19498508     0.32869561    -0.35290924
O       0.98727273     1.82427081     0.09465542    -0.19553247    -0.32882005     0.35273209
O       4.39294903     3.35653530     9.09915343     0.19553247     0.32882005    -0.35273209
O       3.67733323     0.76615307     0.09462561    -0.19453257     0.32911598     0.35286990
O       1.70288848     4.41465300     9.09918324     0.19453257    -0.32911598    -0.35286990
O       4.39293565     0.76613217     4.69156021     0.19550856     0.32912267     0.35280331
O       0.98728596     4.41467395     4.50224890    -0.19550856    -0.32912267    -0.35280331
O       0.19549130     3.15126001     2.48347717     0.29526945    -0.13405300     0.20545976
O       5.18473041     2.02954610     6.71033189    -0.29526945     0.13405300    -0.20545976
O       2.88559351     2.02949788     2.11345659     0.29584461     0.13387122    -0.20545924
O       2.49462815     3.15130823     7.08035236    -0.29584461    -0.13387122     0.20545924
O       0.19547791     0.56085688     2.11342720     0.29523320    -0.13397381    -0.20575029
O       5.18474375     4.61994924     7.08038170    -0.29523320     0.13397381     0.20575029
O       2.49461482     0.56090510     6.71036123    -0.29559316    -0.13409079    -0.20545102
O       2.88560690     4.61990097     2.48344783     0.29559316     0.13409079     0.20545102
