# total energy = -4987.18992267 eV

CRYSTAL
PRIMVEC
        4.22149451     0.00000000     0.00000000
       -0.00000940     4.22149451     0.00000000
       -2.11078036    -2.11078506     5.38756587
PRIMCOORD
6 1
Ti     -0.00018590     3.16628078     1.34689132    -0.00190262     0.00190262     0.00000000
Ti      2.11089054    -1.05557144     4.04067420     0.00190262    -0.00190262     0.00000000
O       0.00004217     1.05536646     0.87759040    -0.00025660    -0.00187279    -1.06797983
O       2.11066235     1.05534276     4.50997518     0.00025660     0.00187279     1.06797983
O      -0.00002384    -1.05534813     3.57137328    -0.00187279    -0.00025660    -1.06797983
O       2.11072830     3.16605729     1.81619230     0.00187279     0.00025660     1.06797983
