# total energy = -19924.12088092 eV

CRYSTAL
PRIMVEC
        6.25924145     0.00000000     0.00000000
        1.63984150     6.45674133     0.00000000
        0.00000000     0.00000000    11.29259722
PRIMCOORD
24 1
Ti      3.24044260     3.82625912     4.18947324    -0.15268373    -1.93928459     0.75258017
Ti      4.65864053     2.63048263     7.10312462     0.15268373     1.93928459    -0.75258017
Ti      6.06626508     2.63048486     1.45678060    -0.03428619    -0.46463142    -0.15992628
Ti      1.83281808     3.82625714     9.83581738     0.03428619     0.46463142     0.15992628
Ti      2.42052198     0.59788851     1.45682588    -0.15268373    -1.93928459    -0.75258017
Ti      5.47856118     5.85885350     9.83577210     0.15268373     1.93928459     0.75258017
Ti      1.01289734     0.59788603     7.10307934     0.03428619     0.46463142    -0.15992628
Ti      6.88618581     5.85885591     4.18951851    -0.03428619    -0.46463142     0.15992628
O       2.55850552     2.27352852     5.76252619     1.79698606     2.01238339    -0.61827495
O       5.34057755     4.18321324     5.53007166    -1.79698606    -2.01238339     0.61827495
O       1.72599061     2.27355458     0.11626365    -0.74253538     0.10239988     0.96240721
O       6.17309260     4.18318729    11.17633389     0.74253538    -0.10239988    -0.96240721
O       4.52065691     0.95484243     0.11622701    -1.79698606    -2.01238339    -0.61827495
O       3.37842622     5.50189932    11.17637053     1.79698606     2.01238339     0.61827495
O       5.35317195     0.95481642     5.76256283     0.74253538    -0.10239988     0.96240721
O       2.54591112     5.50192540     5.53003502    -0.74253538     0.10239988    -0.96240721
O       1.22485727     3.92735624     3.05041241     0.49629354     1.58546467     1.68470337
O       6.67422579     2.52938553     8.24218544    -0.49629354    -1.58546467    -1.68470337
O       3.99942762     2.52932531     2.59592246     0.69819849     1.60934663     0.78663290
O       3.89965552     3.92741650     8.69667521    -0.69819849    -1.60934663    -0.78663290
O       0.40493664     0.69898543     2.59588639     0.49629354     1.58546467    -1.68470337
O       7.49414650     5.75775639     8.69671127    -0.49629354    -1.58546467     1.68470337
O       3.07973487     0.69904563     8.24222145    -0.69819849    -1.60934663     0.78663290
O       4.81934826     5.75769612     3.05037634     0.69819849     1.60934663    -0.78663290
