# total energy = -4988.09005198 eV

CRYSTAL
PRIMVEC
        4.05720766     0.00000000     0.00000000
        1.19037028     3.87865345     0.00000000
       -2.62382559    -1.93935379     5.23848058
PRIMCOORD
6 1
Ti      0.89265355     2.90913878     1.30961984     0.00079216    -0.00079216     0.00000000
Ti      1.73109855    -0.96983931     3.92885996    -0.00079216     0.00079216     0.00000000
O       0.29763500     0.96965798     0.85330554    -0.00054687    -0.00094025    -1.29155430
O       2.32611691     0.96964140     4.38517427     0.00054687     0.00094025     1.29155430
O      -0.29760376    -0.96963489     3.47254566    -0.00094025    -0.00054687    -1.29155430
O       2.92135566     2.90893417     1.76593420     0.00094025     0.00054687     1.29155430
