# total energy = -19071.62010361 eV

CRYSTAL
PRIMVEC
        5.93400000     0.00000000     0.00000000
        0.00000000     9.29699974     0.00000000
        0.00000000     0.00000000     4.64899994
PRIMCOORD
22 1
Ti      4.42438299     6.81039399     2.55382602    -0.07560614    -0.11782445    -0.41708117
Ti      4.35880401     2.32750702     2.16657300     1.60727766     0.46398068     1.76564584
Ti      1.51507802     7.27070697     2.58422498    -0.08689792     0.61850738     1.62164576
Ti      1.63144399     2.34261900     1.92684899    -1.35910775     0.61642093     1.20641682
Ti      2.95642101     4.65317701     4.38682299     1.25379095     0.44176454     0.99579917
Ti      3.01273801     0.05831898     0.20198600     0.62235786    -0.28238436    -0.96290060
Ti      5.82956100     4.39319302     4.13221200     1.87704819     0.13724888     1.39745474
Ti      5.92298602     9.14548900     0.34925497    -1.27019794     0.42454354    -0.72524368
O       4.17938001     5.43838799     0.90505000     0.22012662     0.11089352     1.19906834
O       4.36647200     0.71462498     1.34974098     2.17307226    -0.79015275    -1.62626886
O       1.44767899     0.55999399     1.34652300     0.64739759     2.69305827     0.22251441
O       4.51069201     8.32416801     4.07722202    -0.83710033     1.20409074    -0.66742083
O       4.32401198     4.15484798     3.21187799    -1.16512103    -1.38689135    -1.09607248
O       1.47460099     8.56563699     3.98439999    -0.10500209    -0.06627484    -1.19591925
O       1.55097798     4.03869601     3.19656799    -0.55241329    -0.36592365     0.14128551
O       2.88071400     6.44051100     3.68596799    -0.56289851    -1.32173443    -0.81198039
O       3.08219702     1.50748999     3.20150601    -0.75154479     0.27113810     1.70206578
O       0.01200603     6.33089998     3.67497100     0.53022723    -1.25692178    -1.16586870
O       3.00458000     7.96272201     1.77906899     0.33686683    -0.76640937    -1.20033615
O       3.14441699     2.77926601     0.94591598    -1.43806481     2.83094118    -2.25559236
O       0.00844900     7.96919200     1.63970598    -0.84889013    -3.01664560     1.53560016
O       0.17768100     3.17710898     0.91225602    -0.21532097    -0.44142515     0.33718822
