# total energy = -19958.31251944 eV

CRYSTAL
PRIMVEC
        7.60600008     0.00000000     0.00000000
        0.00000000     7.60600008     0.00000000
       -1.89786986    -1.89786986     4.85670466
PRIMCOORD
24 1
Ti      3.65175399     6.78430799     1.15542000     1.25328136    -1.30981402     2.82222720
Ti      3.84007902     2.97074700     1.20414998     1.32897749     2.52975845     0.22272112
Ti     -0.06286202     6.55593202     1.30162501    -1.90037016     1.06882418    -0.20192166
Ti      0.11608201     2.68908601     1.28040902    -2.21028642    -0.53405792    -1.20932396
Ti      5.71919521     2.68873722     3.63301482     1.44908868     0.63570678     0.05647687
Ti      5.66103022    -1.13168180     3.63066183    -0.28075069    -0.46827005     0.75902850
Ti      1.97673823     2.92790523     3.55762484    -1.35980452    -1.64206033     0.56119592
Ti      1.98841924    -0.90728979     3.71290883    -0.54686356     2.35602740    -1.50493743
O       4.13487202     4.84170698     0.88274301    -1.62168510    -0.39637812    -1.89306771
O       3.72121300     1.24193900     0.83353101     0.50232947    -3.84732949    -2.11241580
O       0.11879098     4.89207900     0.66197100    -0.31760258    -3.14993987     0.51587764
O      -0.36613700     0.80235903     0.96217399     1.55831921     0.74923851    -0.85731718
O       5.53111625     4.63189323     3.86675082    -0.15480566     1.13175195     0.81005746
O       5.88790321     0.77980422     4.19197284    -0.33508917     1.70645054     0.06449795
O       1.83597422     4.89691224     4.20824181     0.54507433     0.04734431    -1.99531743
O       1.58087623     1.13169122     3.67311280     1.47683860    -0.55831500     1.62105055
O       3.92954823     2.72385724     3.02420279    -2.24478498     0.14202445     1.76181438
O       3.79877922    -0.62623079     3.22470779    -2.99514166    -0.32359891     0.47881723
O       0.06539525     3.10461122     3.19231283     1.14962421    -0.01991243     0.64894796
O      -0.17059378    -0.97931177     3.18798283     3.10214999    -0.48342594     0.92514805
O       5.58694000     6.47031898     1.79140898    -0.55176254     0.86751135    -1.91882477
O       5.86708898     2.82797101     1.72194198    -0.97681413     0.23015238    -1.48649721
O       1.80909202     6.55569702     1.55488802     2.34064628     0.53812643     1.13772566
O       1.95070102     2.92179302     1.54413900     0.78943206     0.73018534     0.79403614
