# total energy = -4833.58255565 eV

CRYSTAL
PRIMVEC
        5.30539176     0.00000000     0.00000000
       -0.00000656     1.76846392     0.00000000
       -2.65272964    -0.88434703     6.01854239
PRIMCOORD
6 1
Ti     -0.00022706     1.32639011     1.50463523    -0.08957881    -0.05577188   164.87443401
Ti      2.65288246    -0.44227328     4.51390627     0.08957881     0.05577188  -164.87443401
O       0.00005601     0.44209681     0.98037121     0.08760472     0.05439274  -159.28261192
O       2.65259924     0.44201998     5.03817033    -0.08760472    -0.05439274   159.28261192
O      -0.00002434    -0.44217108     3.98964226    -0.00076902     0.00061938    -0.16302009
O       2.65267950     1.32628782     2.02889929     0.00076902    -0.00061938     0.16302009
