# total energy = -19960.56205835 eV

CRYSTAL
PRIMVEC
        7.60600008     0.00000000     0.00000000
        0.00000000     7.60600008     0.00000000
       -1.89786986    -1.89786986     4.85670466
PRIMCOORD
24 1
Ti      3.69254498     6.66167503     1.27917498    -0.51027469     0.25114802     1.11582319
Ti      3.77653901     2.99251402     1.24380901     0.47048300    -0.37536269     0.05570811
Ti     -0.00733498     6.61034600     1.19539400     1.12688434    -0.98594798    -1.01780576
Ti      0.10277501     2.70466599     1.12255201    -1.59006489     1.72201909     0.10238934
Ti      5.75856621     2.83741725     3.59533480     0.44245205    -0.55038366    -0.09086462
Ti      5.79679921    -1.03586076     3.55790684    -1.52062322     0.47703597     0.25611205
Ti      1.89074920     2.96319723     3.71704282    -0.59190545    -0.49457399    -1.84076091
Ti      1.79322723    -0.95883679     3.79192881     1.73500702     0.19972105    -1.27515297
O       3.60617701     4.83181200     0.73767901     0.58636600    -0.59871527     1.35870177
O       3.71698598     0.96285102     0.80955002     0.06908685     0.88177790     0.90829806
O       0.21079098     4.62531799     0.63714301    -1.02565457     1.02703602     0.47632840
O       0.19103500     0.88244201     0.76894101    -0.58767315    -0.73339922    -0.24632206
O       5.92494821     4.69980821     4.07936879    -0.70004095     0.75060634     0.04142949
O       5.71030720     0.85354724     3.83369179    -0.40133753    -0.15466400     0.74786014
O       1.65649820     4.80339323     4.16853081     0.29073300     0.27534828    -0.75411101
O       1.92186620     1.11130323     4.15898181     0.15745982    -1.64034077    -0.78161077
O       3.78834321     3.07894925     3.14019083    -0.21674176    -0.18520948     0.98360853
O       3.69519822    -1.19396077     3.19001080     0.52221619     0.71198784     0.96745454
O       0.01022122     2.90996221     3.06324380     0.18547534    -0.56577840     1.50940138
O       0.01689324    -0.85031180     3.18906680    -0.21427222    -0.05588552     0.02944377
O       5.66119299     6.52687897     1.63457698     0.80104626    -0.00580041    -0.43836734
O       5.79016100     2.95200402     1.66767400    -1.69550818    -0.30072225    -1.61889673
O       1.85770002     6.47185602     1.66716102    -0.69086930     0.79963781     0.10333293
O       1.78224400     2.96071502     1.69450800     3.35775579    -0.44953493    -0.59199955
