# total energy = -19954.72175722 eV

CRYSTAL
PRIMVEC
        5.42467592     0.00000000     0.00000000
        1.42119596     5.59584248     0.00000000
        0.00000000     0.00000000     9.78691759
PRIMCOORD
24 1
Ti      2.80838358     3.31609124     3.63087681     0.77554887    -1.98901797     0.95320831
Ti      4.03748846     2.27975161     6.15604133    -0.77554887     1.98901797    -0.95320831
Ti      5.25742974     2.27975355     1.26254319    -1.57807274    -0.49811543     0.55496280
Ti      1.58844233     3.31608952     8.52437506     1.57807274     0.49811543    -0.55496280
Ti      2.09778572     0.51817004     1.26258243     0.77554887    -1.98901797    -0.95320831
Ti      4.74808635     5.07767303     8.52433582    -0.77554887     1.98901797     0.95320831
Ti      0.87784436     0.51816789     6.15600209     1.57807274     0.49811543     0.55496280
Ti      5.96802771     5.07767513     3.63091605    -1.57807274    -0.49811543    -0.55496280
O       2.21737145     1.97039139     4.99418936     0.96520225     1.39061123    -0.70917942
O       4.62850054     3.62545147     4.79272877    -0.96520225    -1.39061123     0.70917942
O       1.49585853     1.97041397     0.10076183    -0.05884126    -0.33063242     0.68867487
O       5.35001358     3.62542898     9.68615603     0.05884126     0.33063242    -0.68867487
O       3.91790266     0.82753011     0.10073007    -0.96520225    -1.39061123    -0.70917942
O       2.92796939     4.76831275     9.68618779     0.96520225     1.39061123     0.70917942
O       4.63941569     0.82750756     4.99422112     0.05884126     0.33063242     0.68867487
O       2.20645631     4.76833535     4.79269702    -0.05884126    -0.33063242    -0.68867487
O       1.06154297     3.40370874     2.64369076     0.13514006     0.70492373     0.61197806
O       5.78432902     2.19213412     7.14322738    -0.13514006    -0.70492373    -0.61197806
O       3.46617060     2.19208194     2.24979946     1.01019298     0.50246419    -0.19164753
O       3.37970145     3.40376097     7.53711851    -1.01019298    -0.50246419     0.19164753
O       0.35094508     0.60578737     2.24976820     0.13514006     0.70492373    -0.61197806
O       6.49492697     4.99005553     7.53714977    -0.13514006    -0.70492373     0.61197806
O       2.66910356     0.60583955     7.14325859    -1.01019298    -0.50246419    -0.19164753
O       4.17676849     4.99000330     2.64365950     1.01019298     0.50246419     0.19164753
