# total energy = -19003.39598969 eV

CRYSTAL
PRIMVEC
        7.60600008     0.00000000     0.00000000
        0.00000000     7.60600008     0.00000000
       -1.89786986    -1.89786986     4.85670466
PRIMCOORD
22 1
Ti      4.59781401     5.48743298     0.46179198    -0.47758105     0.49668152    -3.23626546
Ti      5.17731125     3.25178621     2.78357881    -4.49143504    14.58788348   -15.23398857
Ti      1.14618797     6.15099998     0.42544703     8.65913490    12.02599497     3.54888575
Ti      0.42376699     3.09479398     0.92822701     0.87451401    -6.72696559    13.13742106
Ti     -1.79992577     2.92497322     4.70469580   -24.74494286    27.99367047    29.23783880
Ti      5.81065021     1.69440825     3.83483683   -23.46210846   -51.19265497   -19.42096529
Ti     -0.41805177     2.42450320     3.97594781    48.09324295    10.01883786   -20.12002664
Ti      0.22400322    -0.88845579     3.91396883     5.03561668    -2.35709158     0.12028962
O       4.39602602     4.73119101     1.95100799    -3.69197978     1.31812743     2.59746359
O       1.62916720    -1.83855576     4.77201884    -2.40286006     1.08875101    -0.67030973
O       1.86382101     4.39853501     0.73871101     0.01412770     1.66301354    11.64903434
O       1.07721602     0.93138800     0.52159398    -1.26785772    -1.06770369    -0.23383215
O      -0.68296076     4.72957724     3.64671183    -1.43295320     2.65638378    -6.42184418
O       4.82361299     1.64901299     2.38375798    -1.29848780    -3.38822800    -7.32267473
O       1.13872922     3.23043222     4.09247683     6.07702312     4.06398898     0.87022284
O       0.45470222     1.04469024     4.44642883     1.76863475   -10.91192347    -0.85234055
O       4.08761623     2.48335020     3.96549080    -9.06250309    -0.09373757     1.01284070
O       0.34822800     2.08290098     2.27808599    -0.45485429    -0.90075496     1.81899394
O       6.29476802     6.09017598     0.34974198     0.41236833     3.89846618     0.56539068
O       6.20024998     3.93806301     1.22865797     3.71755430    -2.57776816    -0.21024433
O       1.05218599     6.26542398     1.97192198    -1.73099970     2.39999508    11.35157739
O       5.37347022    -0.08192479     4.81476583    -0.13365448    -2.99496631    -2.18746658
