# total energy = -19075.35591836 eV

CRYSTAL
PRIMVEC
        7.60600008     0.00000000     0.00000000
        0.00000000     7.60600008     0.00000000
       -1.89786986    -1.89786986     4.85670466
PRIMCOORD
22 1
Ti      3.74565898     6.45511000     1.05594198     0.45478975     0.75290079     1.51111322
Ti      3.78338302     2.81942601     1.19156402    -0.14013546    -0.61379506     0.71609132
Ti      0.05093998     6.74844702     1.08175202    -0.98127191    -1.01205446     4.11526374
Ti     -0.04072500     2.95890502     1.22664699    -0.47334258     0.71698041    -0.59870165
Ti      5.76939323     2.87206021     3.60511479    -1.25918796     0.13692698     0.04129090
Ti      5.92983220    -0.90055379     3.75086783    -0.95614683     0.81175619    -1.56063963
Ti      1.95330224     2.74136925     3.54698282     0.18890750     0.35921358     0.45222328
Ti      1.92180921    -0.99366576     3.75500483    -0.63874685    -0.62793279     1.37131741
O       3.42280503     4.59987600     0.69037501     0.61135688     1.30808367    -0.03512077
O       3.67787402     0.87377298     1.10522399     0.36525928    -0.29017250    -1.57400834
O       0.10276897     4.81423702     0.68695600    -0.31656437    -0.67620707     0.75665691
O      -0.17361798     1.06254701     0.78465799     0.26196029    -0.08764894     0.52739773
O       5.91697224     4.82978023     4.24544879     0.46064338     0.80509832    -4.17831055
O       5.66718021     1.08209625     3.87015782     0.32515468    -2.00432607     0.41828522
O       1.79528420     4.66135523     4.04096883     0.10460229     0.96234447     0.40691579
O       1.84632525     0.83991823     3.93615083     0.30023426     0.56904910     0.84281924
O       3.80372020     3.11771921     3.29132983    -0.41910411    -0.78030542    -0.38198997
O      -0.05591377     2.96414821     3.10480982     0.26727553    -0.20682861     0.64581610
O       5.62406200     6.31491602     1.88027298     0.11680423     0.96289855    -0.22555731
O       5.60511301     3.03133102     1.56682102     0.42317700    -0.07286998    -0.25248422
O       1.78085798     6.62065199     1.97784500     0.38187195    -0.14295853    -2.12405776
O       1.80443801     2.94398698     1.69605500     0.92246356    -0.87015342    -0.87432067
