# total energy = -19960.44112737 eV

CRYSTAL
PRIMVEC
        7.60600008     0.00000000     0.00000000
        0.00000000     7.60600008     0.00000000
       -1.89786986    -1.89786986     4.85670466
PRIMCOORD
24 1
Ti      3.78974902     6.48926601     1.24489800    -0.81345620     1.71030951    -0.38575895
Ti      3.83639102     2.87544599     1.24796897    -1.70443711    -1.83691685    -1.00630701
Ti      0.00454600     6.74889598     1.17973099     0.95480368    -0.08978501     1.06147133
Ti     -0.01815401     2.93654400     1.22435899     0.82701621    -0.06494609    -0.68116056
Ti      5.71907625     2.89192520     3.63776180     0.44734152    -0.53695247     0.10777683
Ti      5.74875722    -0.97502178     3.59387083     0.01218163     0.80421154     0.01060478
Ti      1.92410224     2.81516021     3.63511480    -0.98275338    -0.31636433    -0.26585936
Ti      1.92406123    -1.06641879     3.65716779    -0.26493480     0.65128227     1.00562438
O       3.52283598     4.61355798     0.78004299     0.87340047     1.53135887    -0.32060408
O       3.61014399     0.78684799     0.92087102     1.20274502     1.55857169    -0.66792246
O       0.07068898     4.88508401     0.72258201    -0.47134072     0.08518222    -0.11925115
O      -0.00970897     1.03235899     0.73085702    -0.24307193    -0.73624415     0.06077807
O       5.96302723     4.85262920     3.91441482    -0.42555527    -0.96441498     1.00170705
O       5.72173325     1.04255724     4.05300581    -0.27228815    -0.08219151    -0.59872942
O       1.69924324     4.67795324     4.09470381     0.62813590    -0.73475959     0.11388191
O       1.75970322     0.84146221     4.11990779     1.25464996     0.36814200     0.19685710
O       3.80935324     3.08925624     3.29236881     0.00298531    -0.91307286    -0.11805816
O       3.77759922    -1.12077175     3.21576279     1.27918575    -0.11604113     0.95002066
O       0.09879623     2.64293323     3.08177881    -2.99772408     0.31390199     1.33473676
O       0.09905325    -1.00845679     3.16076280    -1.89287847     0.63623617    -0.93976838
O       5.66317598     6.63994198     1.63126502     1.49956485     0.13107052    -0.39477992
O       5.61899100     3.06005799     1.58671698     1.26637959    -0.32023642     0.37728999
O       1.99268298     6.70656899     1.70056697    -2.32330290    -0.41324379    -0.35348388
O       1.77026999     3.06207400     1.68085602     2.14335312    -0.66509784    -0.36906554
