# total energy = -19896.63502482 eV

CRYSTAL
PRIMVEC
        8.07417404     0.00000000     0.00000000
        0.00003178     5.72890847     0.00000000
        0.00000000     0.00000000    12.54426752
PRIMCOORD
24 1
Ti      2.92651870     3.39494583     4.65383378     0.55211144    -0.76912831     1.66200412
Ti      5.14768725     2.33396264     7.89043388    -0.55211144     0.76912831    -1.66200412
Ti      6.96346654     2.33396463     1.61824990     0.55241046     0.76917716    -1.66248081
Ti      1.11073942     3.39494411    10.92601783    -0.55241046    -0.76917716     1.66248081
Ti      2.92650282     0.53049173     1.61830019     0.55211144    -0.76912831    -1.66200412
Ti      5.14770314     5.19841694    10.92596754    -0.55211144     0.76912831     1.66200412
Ti      1.11072353     0.53048960     7.89038353    -0.55241046    -0.76917716    -1.66248081
Ti      6.96348243     5.19841907     4.65388407     0.55241046     0.76917716     1.66248081
O       2.55553832     2.01724609     6.40124372     0.65443393     1.52100914    -1.67481645
O       5.51866764     3.71166245     6.14302394    -0.65443393    -1.52100914     1.67481645
O       1.48161846     2.01726918     0.12915027    -0.65419430     1.52211883    -1.67661905
O       6.59258764     3.71163936    12.41511698     0.65419430    -1.52211883     1.67661905
O       5.51865182     0.84720815     0.12910954    -0.65443393    -1.52100914    -1.67481645
O       2.55555414     4.88170032    12.41515770     0.65443393     1.52100914     1.67481645
O       6.59257175     0.84718513     6.40128437     0.65419430    -1.52211883    -1.67661905
O       1.48163414     4.88172348     6.14298322    -0.65419430     1.52211883     1.67661905
O       0.29337290     3.48464688     3.38851963    -1.85328553     0.53325933     0.08445743
O       7.78083305     2.24426165     9.15574803     1.85328553    -0.53325933    -0.08445743
O       4.33046896     2.24420823     2.88365410    -1.85323051    -0.53339509    -0.08458753
O       3.74373700     3.48470030     9.66061336     1.85323051     0.53339509     0.08458753
O       0.29335702     0.62019258     2.88361399    -1.85328553     0.53325933    -0.08445743
O       7.78084894     5.10871589     9.66065339     1.85328553    -0.53325933     0.08445743
O       3.74372118     0.62024600     9.15578800     1.85323051     0.53339509    -0.08458753
O       4.33048478     5.10866254     3.38847959    -1.85323051    -0.53339509     0.08458753
