# total energy = -4987.13711800 eV

CRYSTAL
PRIMVEC
        3.50872242     0.00000000     0.00000000
        0.52335673     3.46947125     0.00000000
       -2.01607119    -1.73476283     4.49062977
PRIMCOORD
6 1
Ti      0.39238996     2.60223605     1.12265720     0.00073868    -0.00081735    -0.00054713
Ti      1.62361837    -0.86752732     3.36797208    -0.00073868     0.00081735     0.00054713
O       0.13087609     0.86736262     0.73148678     0.00057027     0.00246209     1.40634998
O       1.88513208     0.86734598     3.75914250    -0.00057027    -0.00246209    -1.40634998
O      -0.13085462    -0.86734415     2.97680166     0.00247212     0.00053890     1.40564062
O       2.14686274     2.60205275     1.51382762    -0.00247212    -0.00053890    -1.40564062
