# total energy = -19894.02835009 eV

CRYSTAL
PRIMVEC
        8.84018554     0.00000000     0.00000000
        0.00002895     4.03227019     0.00000000
        0.00000000     0.00000000    13.45407145
PRIMCOORD
24 1
Ti      3.20415908     2.38951960     4.99136455     0.23388537    -0.32637493     2.79170073
Ti      5.63605502     1.64275066     8.46270709    -0.23388537     0.32637493    -2.79170073
Ti      7.62410054     1.64275203     1.73561746     0.24029128     0.32574784    -2.79321640
Ti      1.21611356     2.38951835    11.71845431    -0.24029128    -0.32574784     2.79321640
Ti      3.20414480     0.37338457     1.73567143     0.23388537    -0.32637493    -2.79170073
Ti      5.63606930     3.65888575    11.71840034    -0.23388537     0.32637493     2.79170073
Ti      1.21609927     0.37338307     8.46265312    -0.24029128    -0.32574784    -2.79321640
Ti      7.62411482     3.65888726     4.99141852     0.24029128     0.32574784     2.79321640
O       2.79798463     1.41983087     6.86550973     1.22063913     1.03866281    -2.39824879
O       6.04222947     2.61243932     6.58856191    -1.22063913    -1.03866281     2.39824879
O       1.62218001     1.41984713     0.13851719    -1.22224196     1.03919118    -2.40167530
O       7.21803416     2.61242312    13.31555406     1.22224196    -1.03919118     2.40167530
O       6.04221525     0.59630423     0.13847355    -1.22063913    -1.03866281    -2.39824879
O       2.79799884     3.43596603    13.31559770     1.22063913     1.03866281     2.39824879
O       7.21801994     0.59628796     6.86555337     1.22224196    -1.03919118    -2.40167530
O       1.62219409     3.43598229     6.58851827    -1.22224196     1.03919118     2.40167530
O       0.32120186     2.45265529     3.63428038    -2.10501385     0.62741574     0.02060714
O       8.51901224     1.57961490     9.81979126     2.10501385    -0.62741574    -0.02060714
O       4.74130587     1.57957733     3.09279821    -2.10337400    -0.62766514    -0.02040942
O       4.09890822     2.45269292    10.36127324     2.10337400     0.62766514     0.02040942
O       0.32118764     0.43652019     3.09275528    -2.10501385     0.62741574    -0.02060714
O       8.51902645     3.59575006    10.36131617     2.10501385    -0.62741574     0.02060714
O       4.09889401     0.43655776     9.81983413     2.10337400     0.62766514    -0.02040942
O       4.74132009     3.59571249     3.63423745    -2.10337400    -0.62766514     0.02040942
