# total energy = -19071.78274218 eV

CRYSTAL
PRIMVEC
        5.93400000     0.00000000     0.00000000
        0.00000000     9.29699974     0.00000000
        0.00000000     0.00000000     4.64899994
PRIMCOORD
22 1
Ti      4.27016603     7.00111598     2.35356800     0.82052391    -0.00688490     0.04432069
Ti      4.26805598     2.36325099     2.03449100     5.11377645    -0.53472152     2.66180341
Ti      1.41928000     7.19940198     2.59046901     0.63797783    -1.19058884     0.53435720
Ti      1.67853701     2.30553198     2.24835401    -3.31021556     0.53036659     0.56387270
Ti      3.23880301     4.54060698     4.57497498    -1.96967247    -0.42470578    -1.00957977
Ti      2.91739101     0.06817099     4.56859300     0.39047692    -0.39310819     0.99368032
Ti      0.03687000     4.54382798     4.38236499    -0.01082692    -1.63349726    -0.50700862
Ti      5.84973101     9.24400402     0.35726698     0.45335199    -0.89253128     0.40576420
O       4.47860402     5.47991200     0.81939599     0.31712204     1.08054764     1.31875812
O       4.36905999     0.65811901     1.25894702     0.68331077     0.22012662    -1.39174586
O       1.57885002     0.58951600     1.30076700    -1.11402522     1.89374674    -1.23743256
O       4.48425802     8.35136698     3.79851299     0.09104408     1.46775464     1.24258325
O       4.24343199     3.81914302     3.26722602     1.79714213     0.33379333     0.77748594
O       1.45066900     8.29787298     3.97424101    -0.61735629     1.33904979     0.78404277
O       1.63536302     3.89570099     3.35892301    -0.72133869     0.14900885     1.59595734
O       2.90909102     6.28828401     3.35182701     0.57766076    -2.13188266     0.61668858
O       3.01130801     1.48050200     3.37785798     0.72787006    -0.11385852    -0.14051495
O       5.84087999     6.14352498     3.29792999     0.98386744    -0.71191688    -0.19582352
O       2.91169500     7.97628102     1.52474498     0.19877926    -1.93452882    -0.04474698
O       2.96200399     2.77273999     1.01879802    -1.74077787     3.44385538    -3.45655072
O       0.07483699     8.03170000     1.78958200    -2.23394880     0.23410109    -2.60073866
O       0.26323600     3.38752298     1.29531499    -1.07474235    -0.72412602    -0.95517238
