# total energy = -4981.93588277 eV

CRYSTAL
PRIMVEC
        3.60467737     0.00000000     0.00000000
        0.00000000     2.71940236     0.00000000
        0.00000000    -0.00007190     4.76774409
PRIMCOORD
6 1
Ti      1.80233864     1.35966509     2.38387209     0.00000000     0.00000000     0.00000000
Ti      0.00000000     0.00000000     0.00000000     0.00000000     0.00000000     0.00000000
O       1.80233864     0.52995740     0.92916312     0.00000000    -3.43387641    -3.48457396
O       1.80233864     2.18937278     3.83858106     0.00000000     3.43387641     3.48457396
O       0.00000000     0.82967910     3.31303620     0.00000000     3.42890055    -3.47617313
O       0.00000000     1.88965107     1.45470799     0.00000000    -3.42890055     3.47617313
