# total energy = -19925.14219441 eV

CRYSTAL
PRIMVEC
        6.22805525     0.00000000     0.00000000
        1.94483328     6.33680419     0.00000000
        0.00000000     0.00000000    11.27725459
PRIMCOORD
24 1
Ti      3.40987685     3.75518433     4.18378102    -0.10455086    -2.13336798     0.76230794
Ti      4.76301158     2.58162001     7.09347363     0.10455086     2.13336798    -0.76230794
Ti      6.16362285     2.58162219     1.45480125    -0.22011762    -0.71451292    -0.00727674
Ti      2.00926568     3.75518239     9.82245353     0.22011762     0.71451292     0.00727674
Ti      2.43746035     0.58678234     1.45484646    -0.10455086    -2.13336798    -0.76230794
Ti      5.73542811     5.75002218     9.82240831     0.10455086     2.13336798     0.76230794
Ti      1.03684906     0.58677997     7.09342842     0.22011762     0.71451292    -0.00727674
Ti      7.13603940     5.75002455     4.18382623    -0.22011762    -0.71451292     0.00727674
O       2.65602764     2.23129652     5.75469670     1.81991902     2.08717681    -0.71384957
O       5.51686080     4.10550787     5.52255795    -1.81991902    -2.08717681     0.71384957
O       1.82766193     2.23132209     0.11610568    -0.56384879    -0.19243249     1.16801275
O       6.34522658     4.10548236    11.16114866     0.56384879     0.19243249    -1.16801275
O       4.54444427     0.93710570     0.11606909    -1.81991902    -2.08717681    -0.71384957
O       3.62844417     5.39969870    11.16118524     1.81991902     2.08717681     0.71384957
O       5.37281005     0.93708018     5.75473329     0.56384879     0.19243249     1.16801275
O       2.80007833     5.39972428     5.52252136    -0.56384879    -0.19243249    -1.16801275
O       1.40923751     3.85440357     3.04626781     0.52664337     1.94302529     1.94667780
O       6.76365093     2.48240082     8.23098684    -0.52664337    -1.94302529    -1.94667780
O       4.10217692     2.48234173     2.59239538     0.75681864     1.75695603     0.96094219
O       4.07071152     3.85446266     8.68485908    -0.75681864    -1.75695603    -0.96094219
O       0.43682092     0.68600141     2.59235936     0.52664337     1.94302529    -1.94667780
O       7.73606746     5.65080300     8.68489510    -0.52664337    -1.94302529     1.94667780
O       3.09829499     0.68606048     8.23102280    -0.75681864    -1.75695603     0.96094219
O       5.07459344     5.65074391     3.04623179     0.75681864     1.75695603    -0.96094219
