# total energy = -19519.15835077 eV

CRYSTAL
PRIMVEC
        7.60600008     0.00000000     0.00000000
        0.00000000     7.60600008     0.00000000
       -1.89786986    -1.89786986     4.85670466
PRIMCOORD
23 1
Ti      3.78680600     6.56056100     1.24062902     0.52680741     0.76658703     0.09994962
Ti      3.74671299     2.82580302     1.19614098     0.49425903    -0.54078521     0.05816583
Ti      0.04752499     6.72435200     1.25117399    -0.70546649    -0.57015185    -0.55448251
Ti     -0.03001001     2.90754498     1.03487602    -0.41550791     0.12306641     1.75898540
Ti      5.63091823     2.92170222     3.63066183     0.02718094     0.61645718     0.72472097
Ti      5.73600421    -0.98147875     3.60997481    -0.37939264    -0.29995221    -0.39569189
Ti      2.03427324     2.84919324     3.64330980    -0.57339196    -0.23691053     0.97127289
Ti      1.90485622    -1.01570477     3.66301382     0.38376531     0.16451030     0.40349288
O       3.72182002     4.68681903     0.81883401    -0.23388640     0.51481501     0.22904527
O       3.77974799     0.91430700     0.83811601    -0.04884995     0.36822196    -0.31188213
O      -0.05288698     4.84113002     0.70626398     0.61378220    -0.49589888     1.01947929
O      -0.06358001     0.94320400     0.74851699     0.21494610     0.64620871     0.24881654
O       5.74750122     4.81580323     3.97920681     0.42918901    -0.84505250     0.15069010
O       5.71947821     1.00351724     4.10255580     0.49681908    -0.36912159    -2.17833942
O       1.88840622     4.70863224     4.00929482    -0.33546301    -0.05021598     0.75577143
O       1.86278922     0.94741524     4.05899483    -0.30671112    -0.36819959     0.47188014
O       3.80272021     2.92357725     3.43513380     0.21228912    -0.34542398    -1.09277864
O       3.81656624    -1.03893576     3.26251179     0.01081998     0.28292841    -0.54819025
O       0.06774220    -1.15062375     3.19125579    -1.14773316     0.95484379     0.13192181
O       5.69806802     6.63607502     1.56240202    -0.05182549     0.13677991     0.74087085
O       5.70545200     2.88902801     1.74963001     0.74098809    -0.11242873    -1.30941756
O       1.89002899     6.73697298     1.65743098     0.65317589    -0.21848497    -0.19555946
O       1.80089200     2.87052803     1.80400398    -0.60579430    -0.12179320    -1.17872114
