# total energy = -39032.08376828 eV

CRYSTAL
PRIMVEC
        5.93200024     0.00000000     0.00000000
        0.00000000     9.29399984     0.00000000
        0.00000000     0.00000000     9.29399984
PRIMCOORD
46 1
Ti      4.34962702     7.16560502     6.88676300     2.49217559    -1.24498312     0.67458264
Ti      4.52992199     6.84601302     2.41836898    -3.60691352     1.50058044    -0.18176138
Ti      4.49892999     2.08008898     7.32451202     1.03923643     1.72466373    -2.08582261
Ti      4.30933499     2.75458301     2.06517200    -1.21777441    -2.36233252     1.01125459
Ti      1.48615203     6.85216799     6.97435300    -1.48599328     0.40136735     1.40710872
Ti      1.37205601     7.18698902     2.26823901     2.90214843     0.62912501    -0.59719498
Ti      1.57284502     2.41749002     6.69678001    -1.20807878     0.82373548     0.34463877
Ti      1.27089500     2.01729501     2.69330302     1.98199037     0.80236832    -0.98292950
Ti      2.91622100     4.69857602     4.78446398     2.07404567    -0.36303784     0.12727043
Ti      2.92779601     4.83738599     9.00484601    -0.31937021    -1.38735595     0.55801572
Ti      3.00135800     0.02954799     4.67491201     0.67228845     0.23349791    -1.36244350
Ti      3.01809000     0.07186000     9.22557098    -1.11046398    -1.14731973     0.01077704
Ti      5.85949698     4.58150598     4.39919299    -0.51370429    -0.98095850     2.84909986
Ti      0.02613400     4.79353698     0.14935398     0.19985321    -0.06430846    -2.01865406
Ti      5.90443498     9.14516397     4.91299499    -0.99069861     0.36684488    -0.77910702
Ti      0.04812100     0.03092898     0.04897699     0.99118763    -0.08664621    -1.49130441
O       4.55921402     5.39657097     5.63724899     0.92448779     0.96715732    -1.31128367
O       4.31826199     5.61722302     0.75012299     0.97403888    -0.44776858     1.97542171
O       4.41257302     0.72023701     5.67857398    -0.22576274     0.84261510    -0.32349298
O       4.47222500     0.98527502     0.86016799    -0.15515019     0.43830203    -0.70568349
O       1.48245800     5.31088400     5.64716598    -1.73446504     1.33549036     0.12364260
O       1.45323498     5.75360898     0.75024401     0.97265409    -0.73115413     1.22099189
O       1.46120000     0.91304603     5.38684798     0.71703980     1.79613451    -0.26207290
O       1.56256898     0.95856998     0.83260399    -0.15934186     0.01163116     1.19780927
O       4.62341798     8.33947002     8.39516201    -1.91897338     0.37111317    -0.70630775
O       4.50718901     8.20381300     3.91645099     0.16701841     0.90753110    -1.02495214
O       4.33460701     3.61770101     8.53272899     0.70005869    -0.75041890     0.83305650
O       4.32827498     3.70662797     3.70208102     1.46729004     0.32329577    -0.89925755
O       1.45509001     8.44191800     8.20930099     1.12058488    -0.89364560     1.67960642
O       1.35291001     8.42698398     3.87176297     0.91213415    -0.97980921    -2.86756656
O       1.52783500     3.77604698     8.45186102    -0.88970770    -0.57144434    -0.23569466
O       1.67252698     3.59116399     3.80331802    -2.07237934    -0.31467152    -0.63651925
O       3.08308900     5.91128099     7.60513001    -0.19964572     1.41052289    -0.14767908
O       3.18313202     6.06433498     3.38883698    -1.18087521    -0.25378597    -0.59020466
O       2.83836601     1.15611799     7.57925001     1.17878902     0.79116062     1.69114836
O       3.15039299     1.54956101     3.12942000    -0.94725132    -0.99805865    -0.08482947
O       0.01426403     6.16003399     7.99247702     0.09157450    -1.00901824    -0.55582360
O       0.09956999     6.01816400     3.15367500     0.56171940    -0.94314527     0.35882869
O       0.23303701     1.26097001     7.65251101    -1.48966713     0.40773238     1.79439773
O       2.92431498     7.87208099     5.98004599    -0.52784048    -0.29675504     0.05562892
O       2.97166301     7.91461102     1.52540798    -0.31685464     0.19979973    -0.25975762
O       3.22301400     3.29607798     6.17005200    -1.72365791    -1.45481967     0.26650008
O       0.14285500     7.91524899     6.15968600    -0.94626427    -1.24822631     0.17872670
O       5.87388600     7.74933198     1.20481399     0.61007416     0.76599388     1.70806622
O       5.80880698     3.02931703     6.06190601     1.29011988     0.29524940    -0.11597274
O       0.09515798     3.07055999     1.52055500     0.90032456     1.18375150     0.15974296
