# total energy = -19517.60449543 eV

CRYSTAL
PRIMVEC
        7.60600008     0.00000000     0.00000000
        0.00000000     7.60600008     0.00000000
       -1.89786986    -1.89786986     4.85670466
PRIMCOORD
23 1
Ti      3.82376400     6.73429000     1.22538798    -0.66393570     0.16376879    -0.12963507
Ti      3.71919398     2.97962199     1.12830300     0.18417333    -0.41129875     1.99293068
Ti     -0.15520398     6.55179502     1.17647999     2.02277760    -0.85635431    -0.11992170
Ti      0.04967800     2.66336900     1.23439198    -0.44429425     0.66621910     1.46047121
Ti      5.70319924     2.78801723     3.59211783    -1.40426379     0.92276927     2.06939197
Ti      5.71203322    -1.00219578     3.72483680     0.23797548    -0.72277825    -0.87343646
Ti      1.94107121     2.91270721     3.66491283     1.33755855     0.46154584    -0.20153960
Ti      1.82075223    -0.90061078     3.58756383     0.44624700    -0.80998110    -0.90943115
O       4.17998999     4.80927699     0.78004098    -1.17967656    -0.62071210     0.05845148
O       3.77182700     1.11574801     0.88364197    -0.05880372    -1.07443073    -0.94856721
O      -0.21474902     4.81326000     0.82592202     0.57238023    -1.36809144    -0.52745970
O       0.28141900     0.79295602     0.81732702    -0.47648576     1.98550507    -0.47205832
O       5.86441325     4.69546922     3.94517383    -0.58609604    -0.37892418     0.14638504
O       5.47933123     0.89571722     4.35114681     0.42456154    -0.01393667    -3.79470748
O       1.95007823     4.73676325     4.08548581    -0.59293672     1.41820355     0.25465578
O       1.91491720     0.96823524     3.92056979    -0.76775663     0.13199046     0.73436236
O       3.74901523     2.88259824     3.16966780     0.87683855    -0.18791377    -0.82014159
O       3.85739523    -1.03990876     3.12299182    -0.16582876    -0.01379115     1.28217080
O       0.01268221     6.37899621     3.10858381    -0.17527037     1.23234152     1.57333651
O       5.75469798     6.88289398     1.65055798    -1.72391760     0.58791278     0.24413405
O       5.81881701     2.82532697     1.78556602     0.12730513    -0.62148317    -0.97856583
O       1.88309899     6.65482901     1.61374502     1.49767149    -0.29361520     0.44648123
O       1.80763303     3.11569600     1.67160299     0.51177699    -0.19694555    -0.48730728
