# total energy = -19960.35742185 eV

CRYSTAL
PRIMVEC
        5.93400000     0.00000000     0.00000000
        0.00000000     9.29699974     0.00000000
        0.00000000     0.00000000     4.64899994
PRIMCOORD
24 1
Ti      4.43376900     7.02780001     2.24889801     1.93236035     0.48509227    -0.12587303
Ti      4.47251700     2.43594899     2.40131402    -0.77146570    -1.56268674    -2.21161619
Ti      1.50286699     6.81933201     2.30775601    -1.40270699     1.61786109     0.15558625
Ti      1.50510800     2.29778800     2.46432898     1.02194704    -0.66424192    -1.69691740
Ti      2.94596700     4.68279802     4.61916901     0.93896388     0.84077933     0.92950942
Ti      2.93938801     9.27781501     0.03776500    -0.41261953    -0.38196991     0.54876129
Ti      0.03486400     4.57029599     4.61707399    -1.05002452     1.31596076     0.70317615
Ti      5.89920602     0.07380202     4.55573701     0.03574195    -1.41473487     1.81078569
O       4.51576999     5.67401400     0.87112497    -0.40475221    -2.26652958    -1.31855064
O       4.52898403     0.83566798     1.10601702    -0.78191390     0.21339161    -1.35350531
O       1.45290699     5.64905599     0.76726198     0.28493413    -0.90209913     0.00300896
O       1.40325397     0.78216800     1.01382900     0.96181097     0.74605214    -0.05964113
O       4.47906298     8.38817200     3.69484002    -0.47404578     0.76108358     0.70164686
O       4.39247598     3.76756898     3.63486498     0.43366993     1.02705068     1.50642301
O       1.46363998     8.34406899     3.79269199     0.60048188     0.41348188    -0.36423032
O       1.52036699     3.79990901     3.71390300    -0.36840194    -0.41262210     0.00252534
O       3.02010500     6.04432198     3.28333502    -0.55469951     0.04364706    -0.72709436
O       2.94259800     1.49401999     3.37515600    -0.00494578    -0.01808952    -0.28364189
O       0.08399302     5.95779001     3.03845401    -0.22789830    -0.54574513     1.32423869
O       5.91557500     1.51255898     3.28938801    -0.24762561     0.17209634     0.31068245
O       3.05493503     7.84920000     1.37520102    -1.10651091     0.17569511    -0.03589056
O       2.82236501     3.17922199     1.38280498     0.84088269     0.31780158     0.13688533
O       5.90494500     7.84794701     1.39645098     0.66706345    -0.16435629     0.39926213
O       5.89885501     3.25967900     1.40916399     0.08975442     0.20308200    -0.35553048
