# total energy = -19921.04351066 eV

CRYSTAL
PRIMVEC
        6.33215497     0.00000000     0.00000000
        1.00527888     6.66392916     0.00000000
        0.00000000     0.00000000    11.36535003
PRIMCOORD
24 1
Ti      2.89082893     3.94903818     4.21646384    -0.12557864    -1.55505108     0.72978065
Ti      4.44660484     2.71489079     7.14888645     0.12557864     1.55505108    -0.72978065
Ti      5.87062650     2.71489304     1.46616586     0.11596579     0.09634827    -0.41515310
Ti      1.46680729     3.94903619     9.89918456    -0.11596579    -0.09634827     0.41515310
Ti      2.38818963     0.61707372     1.46621144    -0.12557864    -1.55505108    -0.72978065
Ti      4.94924416     6.04685544     9.89913898     0.12557864     1.55505108     0.72978065
Ti      0.96416796     0.61707128     7.14884087    -0.11596579    -0.09634827    -0.41515310
Ti      6.37326583     6.04685789     4.21650942     0.11596579     0.09634827     0.41515310
O       2.35814279     2.34648266     5.79965118     1.68964786     1.79018832    -0.40019416
O       4.97929099     4.31744631     5.56569904    -1.68964786    -1.79018832     0.40019416
O       1.51592731     2.34650960     0.11701264    -1.04646689     0.64762179     0.54604184
O       5.82150653     4.31741943    11.24833732     1.04646689    -0.64762179    -0.54604184
O       4.47665167     0.98548166     0.11697578    -1.68964786    -1.79018832    -0.40019416
O       2.86078210     5.67844731    11.24837419     1.68964786     1.79018832     0.40019416
O       5.31886722     0.98545478     5.79968811     1.04646689    -0.64762179     0.54604184
O       2.01856650     5.67847426     5.56566218    -1.04646689     0.64762179    -0.54604184
O       0.84152942     4.05337946     3.07006464     0.47139728     0.82128162     1.14037621
O       6.49590434     2.61054944     8.29528565    -0.47139728    -0.82128162    -1.14037621
O       3.78995373     2.61048747     2.61264666     0.59250966     1.18902844     0.38751193
O       3.54748004     4.05344144     8.75270344    -0.59250966    -1.18902844    -0.38751193
O       0.33889011     0.72141481     2.61261031     0.47139728     0.82128162    -1.14037621
O       6.99854366     5.94251410     8.75273972    -0.47139728    -0.82128162     1.14037621
O       3.04484072     0.72147679     8.29532187    -0.59250966    -1.18902844     0.38751193
O       4.29259305     5.94245212     3.07002836     0.59250966     1.18902844    -0.38751193
