# total energy = -19961.56804924 eV

CRYSTAL
PRIMVEC
        7.60600008     0.00000000     0.00000000
        0.00000000     7.60600008     0.00000000
       -1.89786986    -1.89786986     4.85670466
PRIMCOORD
24 1
Ti      3.70889100     6.70603299     1.25987202     0.24336837    -0.99183478     0.96553238
Ti      3.81369498     2.93753801     1.24122202     0.12092957     0.31874235    -0.68644418
Ti      0.04239699     6.58863301     1.20586001    -0.31292445    -0.20764520    -0.76943710
Ti      0.06441299     2.72957500     1.12711098    -0.60867470     0.77731368     0.75649494
Ti      5.72454022     2.80096323     3.61830681     0.78037844     0.08545759    -0.01680525
Ti      5.74511320    -1.02472777     3.57295680    -0.71495695    -0.00649461    -0.07600235
Ti      1.91824520     2.95271121     3.65862281    -0.85856417    -0.62373392    -0.27776615
Ti      1.82647623    -0.93954278     3.74573682     0.79461233     0.50491291    -0.86804846
O       3.62464000     4.79631098     0.71896598     0.59734822    -0.13303947     1.01778622
O       3.76082599     0.92020701     0.82870602     0.01273391     1.37545586     0.41789158
O       0.15873301     4.66067698     0.71939001    -0.68945442     0.69563999    -0.32222182
O       0.08633299     0.90010002     0.82444101    -0.21505949    -0.06595551    -0.39008946
O       5.83624022     4.76542222     4.04969480    -0.34310767    -0.70017567     0.29144314
O       5.65260524     0.85526622     3.91997282    -0.23635286     0.90631780     0.68254175
O       1.72833423     4.81193023     4.17907181     0.22843206    -0.24170358    -1.33002393
O       1.90093523     1.02971220     4.14743982     0.29466550    -0.82909495    -0.85072307
O       3.81286925     3.04980825     3.14021580    -0.42842874    -0.18275665     1.52987071
O       3.73625523    -1.09923577     3.19418283    -0.02377834     0.42054676     0.55776324
O      -0.01990775     2.88844322     3.10315583     0.01392253    -0.31529784     0.81984206
O       0.00831724    -0.80329578     3.17833683     0.41094343    -0.32452296     0.63325060
O       5.74058302     6.54705899     1.67112900    -0.62575301    -0.06742669    -0.74697517
O       5.69723398     2.88754203     1.64627699    -0.16150056    -0.20184633    -0.95168159
O       1.84766999     6.57203901     1.63510600     0.58919473     0.31531327     0.42733704
O       1.84950799     2.91620100     1.70400297     1.13202577    -0.50817204    -0.81353514
