# total energy = -19516.54552245 eV

CRYSTAL
PRIMVEC
        5.93400000     0.00000000     0.00000000
        0.00000000     9.29699974     0.00000000
        0.00000000     0.00000000     4.64899994
PRIMCOORD
23 1
Ti      4.50790298     7.00512101     2.17648200    -1.48553434     1.58920022    -0.90150315
Ti      4.48026501     2.20511901     2.39998398     1.84967184     0.09374760    -0.09519590
Ti      1.36902197     7.01468599     2.42157299     1.11561802     0.34584513    -1.37490975
Ti      1.54931399     2.42806202     2.35742501    -1.99062311    -0.55430177    -1.09246034
Ti      2.86091499     4.46829602     0.10858400     1.08375329     0.07046317     0.56387630
Ti      2.95435298     0.15859802     0.01627802    -0.02053412    -1.12943590     1.11445074
Ti      5.89009200     4.68992699     0.03482902     0.00306784    -0.52418822     0.31509755
Ti      0.04755102     9.24681099     4.54863598    -1.08287860     0.94734722     0.06487230
O       4.47347899     5.54209699     0.83224600    -1.61398053     1.39096141     0.73527998
O       4.41821199     0.91913199     0.85100200     0.58000561    -0.13428157     0.60722614
O       1.50479002     5.60910300     0.86338502     1.00022943    -0.32239537    -0.34189823
O       1.48812099     1.06719901     0.89576902     0.41945404    -1.52132668    -0.57731212
O       4.57814200     8.52095602     3.44000699    -0.54353218    -0.39280172     1.87056618
O       4.54405801     3.74027502     3.96437799    -1.96690647    -1.55175441    -2.89023907
O       1.47743002     8.35945599     3.72088200     0.49090605    -0.32041125     0.27985440
O       1.36346403     3.52394101     3.90872399     1.64301395     1.71847071    -0.40232226
O       2.85376300     1.45588002     3.31543099     1.37611869     0.13437207    -0.76750620
O       5.82400601     5.96364499     2.98509802     1.07384040    -0.65634040     1.84987444
O       0.07856499     1.39153497     3.21606098    -0.22156773     0.06677774    -0.17143814
O       2.96056600     7.88732299     1.37268399    -0.12735553    -0.73181645     0.43411730
O       3.17095603     3.14402800     1.38947298    -1.40793301     0.79495351     0.70789747
O       0.05000799     7.89635303     1.42986101     0.04208280     0.41378810    -1.26371053
O       0.00166903     3.20473002     1.40140799    -0.21691686     0.27312685     1.33538237
