# total energy = -19903.46565696 eV

CRYSTAL
PRIMVEC
        8.11946207     0.00000000     0.00000000
        0.00003064     5.18493759     0.00000000
        0.00000000     0.00000000    12.40068392
PRIMCOORD
24 1
Ti      2.94293240     3.07258919     4.60056531     0.52937851    -0.57517322     2.11780766
Ti      5.17655978     2.11234833     7.80011874    -0.52937851     0.57517322    -2.11780766
Ti      7.00252374     2.11235008     1.59972717     0.52851693     0.57558357    -2.11774364
Ti      1.11696850     3.07258765    10.80095694    -0.52851693    -0.57558357     2.11774364
Ti      2.94291735     0.48012046     1.59977692     0.52905918    -0.59788969    -2.11809228
Ti      5.17657483     4.70481719    10.80090727    -0.52905918     0.59788969     2.11809228
Ti      1.11695338     0.48011859     7.80006900    -0.52783585    -0.59819720    -2.12006458
Ti      7.00253880     4.70481907     4.60061498     0.52783585     0.59819720     2.12006458
O       2.56987165     1.82570462     6.32797411     0.71042229     1.48112618    -1.94492379
O       5.54962060     3.35923284     6.07270994    -0.71042229    -1.48112618     1.94492379
O       1.48992815     1.82572555     0.12767200    -0.71112883     1.48212145    -1.94670788
O       6.62956416     3.35921197    12.27301165     0.71112883    -1.48212145     1.94670788
O       5.54960554     0.76676398     0.12763175    -0.71033462    -1.48226646    -1.94599928
O       2.56988670     4.41817348    12.27305190     0.71033462     1.48226646     1.94599928
O       6.62954904     0.76674311     6.32801429     0.71081953    -1.48186614    -1.94594323
O       1.48994307     4.41819442     6.07266970    -0.71081953     1.48186614     1.94594323
O       0.29501736     3.15377297     3.34973410    -2.18308825     0.70689782     0.21425422
O       7.82447489     2.03116449     9.05094989     2.18308825    -0.70689782    -0.21425422
O       4.35475774     2.03111629     2.85064731    -2.18246990    -0.70669445    -0.21532611
O       3.76473444     3.15382124     9.55003647     2.18246990     0.70669445     0.21532611
O       0.29500224     0.56130410     2.85060773    -2.18430027     0.70652321    -0.21540865
O       7.82448994     4.62363336     9.55007606     2.18430027    -0.70652321     0.21540865
O       3.76471938     0.56135237     9.05098940     2.18303709     0.70666360    -0.21558759
O       4.35477280     4.62358509     3.34969452    -2.18303709    -0.70666360     0.21558759
