# total energy = -39034.33060087 eV

CRYSTAL
PRIMVEC
        5.93200024     0.00000000     0.00000000
        0.00000000     9.29399984     0.00000000
        0.00000000     0.00000000     9.29399984
PRIMCOORD
46 1
Ti      4.44481299     7.17306298     6.90298001    -0.07565140    -1.52216743    -0.08361822
Ti      4.54527898     6.80820997     2.37354100    -1.18441125     1.36433146    -0.23764021
Ti      4.42347899     2.25627299     7.21732199     1.35152607    -0.09902762    -1.47145857
Ti      4.27805198     2.55595797     1.97664499     0.61201380    -0.34694453     2.11564922
Ti      1.46635201     6.78479399     7.02225799    -1.66714196     0.39216820     0.17056808
Ti      1.59008402     7.00562299     2.21437099     0.71573496     0.76735142    -0.02995825
Ti      1.47045599     2.46503998     6.73671702    -0.89013527     0.32621552     0.37219432
Ti      1.37113397     1.96779201     2.80317900     0.99997592     0.22319678    -1.79358500
Ti      3.04433301     4.56477699     4.65391600     1.15682279     0.65846542    -0.50512477
Ti      2.92064000     4.81630399     9.02154801    -0.37241235    -0.07935199     1.17027198
Ti      2.94505100     9.24885298     4.71291598    -0.01661062    -0.11515101    -1.23982908
Ti      2.97776902     0.05375901     9.27971200    -1.91563069    -0.35363969     1.13019463
Ti      0.06692801     4.80641102     4.53091600    -1.28069833    -1.26447466     1.00774889
Ti      5.91215202     4.53426601     0.00797502     1.24287713     1.06310399     0.81299932
Ti      5.84668200     9.07902899     4.82204800    -0.12867476     0.22727866    -1.44321525
Ti      5.89970201     0.02069602     0.06873499     2.07702969     0.21796612     0.69156684
O       4.49477801     5.72886201     5.43930299     0.08294999    -0.48966318     0.37700820
O       4.51925701     5.55158202     0.98552198    -0.44088831    -1.50708070    -1.05601288
O       4.35905002     0.67188699     5.68457601     0.86296461     1.24403515     0.30067649
O       4.52363097     0.94537500     1.08177202    -0.82978683     0.20353040    -0.96295202
O       1.39929202     5.54210901     5.62317198     0.83161900    -0.19997071    -0.37875218
O       1.59273901     5.67455202     0.74088101    -0.21000804    -0.63065584     0.65611775
O       1.34527499     0.93534402     5.52256898     0.78622436     0.37261701    -0.83170153
O       1.46660300     0.88230802     1.15957600     0.21230147     0.29442485    -0.22189786
O       4.46052601     8.61568499     8.32744198    -0.38359794    -0.88605261    -0.42163331
O       4.47179700     8.10183398     3.96849700    -0.10803882     1.13871013    -0.67842362
O       4.51191197     3.84558198     8.33980197    -1.13838669    -1.40117564     0.29349848
O       4.50517100     3.79920902     3.70412899    -0.54100401    -0.45211992    -0.63527432
O       1.47711500     8.45235798     8.50541699     0.41966898    -0.25950719    -0.19584460
O       1.40387999     8.53525698     3.53142199    -0.11347208     0.36828521     1.29098351
O       1.53000801     4.13980702     8.01596100    -0.16237551    -2.32660060     1.26700411
O       1.56430299     3.76018701     3.69958600    -0.33297444    -1.18519929     0.27458749
O       2.97594902     6.09287103     7.75865100     2.32861994     1.06139909     0.15100532
O       2.90256801     6.03906698     3.36823098    -0.31547833     0.96227017    -1.74065008
O       2.83316398     1.54083001     7.89244299     0.42839068    -0.35082433     0.90425732
O       3.15942002     1.35947302     3.24030698    -0.69122052     0.80315070     0.24538772
O       5.84365198     5.98131797     7.87330402    -0.49957119     2.07301260    -0.39471488
O       0.11204201     5.93918298     3.07426201     0.78369825     0.37094707     0.27404010
O       0.08177302     1.46996000     8.01568800    -0.37623712     1.00901156    -0.78573327
O       2.85391302     7.87644898     6.06522702    -0.41473221    -0.16344406     0.42770420
O       3.12785099     7.83582801     1.32424702    -0.63772381    -0.12434605     0.76097766
O       3.17128200     3.19903200     6.03392602    -1.39405779    -0.07175000    -0.00992780
O       0.07911703     7.86554200     6.13812700     0.59482982    -0.16872948     0.56339807
O       5.88284401     7.90716999     1.49768698     0.10297169    -0.48237487    -0.36621239
O       5.83778399     3.23925101     6.05114699     0.62173925    -0.71928977     0.18518737
O       0.07342699     3.17921601     1.43411602    -0.09103894     0.05806993     0.04113407
