# total energy = -19874.62331141 eV

CRYSTAL
PRIMVEC
        9.68124486     0.00000000     0.00000000
        0.00003048     3.90832746     0.00000000
        0.00000000     0.00000000    14.98415325
PRIMCOORD
24 1
Ti      3.50900382     2.31607118     5.55901401     0.28981820    -0.20008615     2.32833815
Ti      6.17227179     1.59225614     9.42513938    -0.28981820     0.20008615    -2.32833815
Ti      8.34946101     1.59225747     1.93300282     0.28942302     0.20008641    -2.32981088
Ti      1.33181460     2.31607006    13.05115070    -0.28942302    -0.20008641     2.32981088
Ti      3.50898871     0.36190752     1.93306289     0.28981820    -0.20008615    -2.32833815
Ti      6.17228690     3.54641994    13.05109063    -0.28981820     0.20008615     2.32833815
Ti      1.33179949     0.36190612     9.42507931    -0.28942302    -0.20008641    -2.32981088
Ti      8.34947612     3.54642134     5.55907408     0.28942302     0.20008641     2.32981088
O       3.06418598     1.37618851     7.64629869     0.61731618     0.82160326    -2.38713750
O       6.61708969     2.53213881     7.33785470    -0.61731618    -0.82160326     2.38713750
O       1.77651473     1.37620425     0.15427026    -0.61858194     0.82221159    -2.38907509
O       7.90476102     2.53212307    14.82988272     0.61858194    -0.82221159     2.38907509
O       6.61707459     0.57797508     0.15422166    -0.61731618    -0.82160326    -2.38713750
O       3.06420102     3.33035224    14.82993132     0.61731618     0.82160326     2.38713750
O       7.90474591     0.57795934     7.64634736     0.61858194    -0.82221159    -2.38907509
O       1.77652963     3.33036805     7.33780602    -0.61858194     0.82221159     2.38907509
O       0.35176058     2.37726630     4.04759360    -1.88987105     0.57547018    -0.01936067
O       9.32951503     1.53106102    10.93655979     1.88987105    -0.57547018     0.01936067
O       5.19239576     1.53102469     3.44453068    -1.88925682    -0.57540924     0.01880891
O       4.48887992     2.37730270    11.53962244     1.88925682     0.57540924    -0.01880891
O       0.35174548     0.42310257     3.44448282    -1.88987105     0.57547018     0.01936067
O       9.32953013     3.48522475    11.53967029     1.88987105    -0.57547018    -0.01936067
O       4.48886481     0.42313890    10.93660751     1.88925682     0.57540924     0.01880891
O       5.19241086     3.48518842     4.04754581    -1.88925682    -0.57540924    -0.01880891
