# total energy = -19517.81560988 eV

CRYSTAL
PRIMVEC
        5.93400000     0.00000000     0.00000000
        0.00000000     9.29699974     0.00000000
        0.00000000     0.00000000     4.64899994
PRIMCOORD
23 1
Ti      4.55378498     7.05682200     2.28066298     1.14165713    -0.48067897     0.61042871
Ti      4.41029698     2.25392202     2.33471299     0.27671122    -0.35644682     0.27435661
Ti      1.50708199     7.16295998     2.20942599    -0.37626078    -0.67135514     0.29805756
Ti      1.44735799     2.33178198     2.34990101    -0.43542497    -0.67046014    -0.10792235
Ti      2.99837302     4.49928501     0.06994300    -0.27980323     0.09651205     1.02886459
Ti      2.95612102     9.29479599     4.61001202    -0.51237246    -0.17161426    -0.39150177
Ti      5.93019898     4.60918200     0.04141299     0.31080869     1.44486538    -0.69928324
Ti      5.89466001     0.10327100     0.03152102     0.56146512    -0.12935868    -0.45709757
O       4.45541299     5.54310100     0.90120198    -0.53706251     0.01559915     0.10008383
O       4.38763999     0.87060702     0.94259798    -0.18804336     0.02536086    -0.47568177
O       1.51492202     5.69427498     0.90350300     0.35752180    -1.04288559    -0.09228850
O       1.56458599     0.82530002     1.02738398    -0.49511495     0.59172958    -0.69945088
O       4.49817300     8.40561400     3.70059901    -0.42900929    -0.57509660     0.16915705
O       4.41156298     3.71050399     3.66729698    -0.23907180     0.76003689     0.95672970
O       1.32061300     8.34244701     3.82942901     1.50564808    -0.13980019    -0.74898037
O       1.46797299     3.78326300     3.70077898     0.55089042    -0.53526891     0.18367634
O       2.97843102     1.35128300     3.21278802    -0.98922305    -0.04598317     0.66297308
O       0.07411598     5.97031601     3.28586898    -0.71293143     0.85894264    -1.02526813
O       5.88327699     1.30330599     3.15262400     0.57747898     0.57492896     0.98317967
O       3.08444100     7.89723299     1.34310901    -0.65135323    -1.15267483     1.30515313
O       2.94312897     3.20875701     1.47829501    -0.39534325     0.63823649    -1.04008026
O       0.02822700     7.97103899     1.47149699    -0.66647107    -0.23905740    -0.09402451
O       5.79619198     3.06317802     1.37692402     1.62530367     1.20446920    -0.74108091
