# total energy = -19909.40348917 eV

CRYSTAL
PRIMVEC
        6.57320568     0.00000000     0.00000000
        0.00003603     6.99587861     0.00000000
        0.00000000     0.00000000    11.76459281
PRIMCOORD
24 1
Ti      2.38249226     4.14575119     4.36458011     0.05568214    -0.92431270     0.61932370
Ti      4.19074945     2.85012748     7.40001304    -0.05568214     0.92431270    -0.61932370
Ti      5.66898002     2.85012989     1.51766945     0.05555899     0.92417515    -0.61905991
Ti      0.90426168     4.14574906    10.24692382    -0.05555899    -0.92417515     0.61905991
Ti      2.38247438     0.64781202     1.51771663     0.05568214    -0.92431270    -0.61932370
Ti      4.19076733     6.34806686    10.24687664    -0.05568214     0.92431270     0.61932370
Ti      0.90424381     0.64780942     7.39996586    -0.05555899    -0.92417515    -0.61905991
Ti      5.66899790     6.34806946     4.36462728     0.05555899     0.92417515     0.61905991
O       2.08047378     2.46336785     6.00338178     1.41056248     1.31018169    -0.00470281
O       4.49276792     4.53251089     5.76121136    -1.41056248    -1.31018169     0.00470281
O       1.20619286     2.46339603     0.12112308    -1.41022130     1.31035678    -0.00573870
O       5.36704892     4.53248272    11.64346973     1.41022130    -1.31035678     0.00573870
O       4.49275004     1.03457152     0.12108491    -1.41056248    -1.31018169    -0.00470281
O       2.08049166     5.96130716    11.64350790     1.41056248     1.31018169     0.00470281
O       5.36703104     1.03454334     6.00341995     1.41022130    -1.31035678    -0.00573870
O       1.20621060     5.96133540     5.76117319    -1.41022130     1.31035678     0.00573870
O       0.23884165     4.25528996     3.17791009     0.49732301    -0.28692236     0.33019507
O       6.33440005     2.74058872     8.58668305    -0.49732301     0.28692236    -0.33019507
O       3.52544976     2.74052352     2.70442388     0.49716463     0.28719593    -0.33052006
O       3.04779195     4.25535516     9.06016906    -0.49716463    -0.28719593     0.33052006
O       0.23882377     0.75735059     2.70438631     0.49732301    -0.28692236    -0.33019507
O       6.33441793     6.23852809     9.06020663    -0.49732301     0.28692236     0.33019507
O       3.04777407     0.75741579     8.58672055    -0.49716463    -0.28719593    -0.33052006
O       3.52546764     6.23846289     3.17787252     0.49716463     0.28719593     0.33052006
