# total energy = -4988.89139467 eV

CRYSTAL
PRIMVEC
        3.30206242     0.00000000     0.00000000
        0.00000000     4.68109072     0.00000000
        0.00000000    -0.00006403     4.93981310
PRIMCOORD
6 1
Ti      1.65103121     2.34051318     2.46990655     0.00000000     0.00000000     0.00000000
Ti      0.00000000     0.00000000     0.00000000     0.00000000     0.00000000     0.00000000
O       1.65103121     0.91226309     0.96269681    -0.00000000    -0.13773379    -0.21375337
O       1.65103121     3.76876321     3.97711624    -0.00000000     0.13773379     0.21375337
O       0.00000000     1.42822415     3.43260436     0.00000000     0.13751730    -0.21355437
O       0.00000000     3.25280221     1.50720869     0.00000000    -0.13751730     0.21355437
