# total energy = -19928.66253109 eV

CRYSTAL
PRIMVEC
        6.07439945     0.00000000     0.00000000
        2.76909240     5.84194512     0.00000000
        0.00000000     0.00000000    11.17225613
PRIMCOORD
24 1
Ti      3.84263917     3.46193123     4.14482731     0.54667587    -2.84150585     0.68901425
Ti      5.00085248     2.38001380     7.02742888    -0.54667587     2.84150585    -0.68901425
Ti      6.36690877     2.38001578     1.44125616    -1.62263075    -1.06989607     0.59786655
Ti      2.47658299     3.46192948     9.73100021     1.62263075     1.06989607    -0.59786655
Ti      2.45809312     0.54095877     1.44130093     0.54667587    -2.84150585    -0.68901425
Ti      6.38539857     5.30098645     9.73095544    -0.54667587     2.84150585     0.68901425
Ti      1.09203679     0.54095661     7.02738410     1.62263075     1.06989607     0.59786655
Ti      7.75145496     5.30098859     4.14487215    -1.62263075    -1.06989607    -0.59786655
O       2.89763022     2.05704816     5.70111679     1.72939919     2.11215123    -1.00342095
O       5.94586142     3.78489688     5.47113946    -1.72939919    -2.11215123     1.00342095
O       2.08970512     2.05707176     0.11502466     0.26549710    -1.08703145     1.57880628
O       6.75378661     3.78487339    11.05723129    -0.26549710     1.08703145    -1.57880628
O       4.56131534     0.86392429     0.11498836    -1.72939919    -2.11215123    -1.00342095
O       4.28217632     4.97802081    11.05726752     1.72939919     2.11215123     1.00342095
O       5.36924052     0.86390074     5.70115302    -0.26549710     1.08703145     1.57880628
O       3.47425108     4.97804437     5.47110316     0.26549710    -1.08703145    -1.57880628
O       1.90501591     3.55340222     3.01790511     0.65874876     2.69327296     2.52481884
O       6.93847568     2.28854283     8.15435114    -0.65874876    -2.69327296    -2.52481884
O       4.34265628     2.28848847     2.56825852     0.93950047     1.82602925     1.30060022
O       4.50083537     3.55345657     8.60399749    -0.93950047    -1.82602925    -1.30060022
O       0.52046981     0.63242957     2.56822283     0.65874876     2.69327296    -2.52481884
O       8.32302178     5.20951548     8.60403318    -0.65874876    -2.69327296     2.52481884
O       3.11628927     0.63248393     8.15438670    -0.93950047    -1.82602925     1.30060022
O       5.72720238     5.20946111     3.01786942     0.93950047     1.82602925    -1.30060022
