# total energy = -19943.40736825 eV

CRYSTAL
PRIMVEC
        5.78319416     0.00000000     0.00000000
        1.80591662     5.88417532     0.00000000
        0.00000000     0.00000000    10.47173640
PRIMCOORD
24 1
Ti      3.16631422     3.48695687     3.88493952     0.35821908    -2.33522948     0.94262050
Ti      4.42279647     2.39721858     6.58679694    -0.35821908     2.33522948    -0.94262050
Ti      5.72336407     2.39722060     1.35088687    -1.04370861    -0.67438004     0.28221287
Ti      1.86574671     3.48695507     9.12084970     1.04370861     0.67438004    -0.28221287
Ti      2.26335604     0.54486931     1.35092886     0.35821908    -2.33522948    -0.94262050
Ti      5.32575467     5.33930631     9.12080772    -0.35821908     2.33522948     0.94262050
Ti      0.96278841     0.54486712     6.58675496     1.04370861     0.67438004     0.28221287
Ti      6.62632230     5.33930851     3.88498150    -1.04370861    -0.67438004    -0.28221287
O       2.46631138     2.07191820     5.34364693     1.57048053     1.94763374    -0.78140096
O       5.12279931     3.81225731     5.12808953    -1.57048053    -1.94763374     0.78140096
O       1.69711465     2.07194194     0.10781241    -0.31660216    -0.32594658     1.05689734
O       5.89199611     3.81223362    10.36392375     0.31660216     0.32594658    -1.05689734
O       4.21984111     0.87016957     0.10777844    -1.57048053    -1.94763374    -0.78140096
O       3.36926958     5.01400593    10.36395773     1.57048053     1.94763374     0.78140096
O       4.98903791     0.87014588     5.34368091     0.31660216     0.32594658     1.05689734
O       2.60007274     5.01402969     5.12805555    -0.31660216    -0.32594658    -1.05689734
O       1.30857769     3.57908903     2.82867725     0.41349910     1.57606934     1.52642209
O       6.28053301     2.30508648     7.64305921    -0.41349910    -1.57606934    -1.52642209
O       3.80916428     2.30503161     2.40722428     0.98557311     1.31724760     0.48934719
O       3.77994641     3.57914390     8.06451200    -0.98557311    -1.31724760    -0.48934719
O       0.40561942     0.63700131     2.40719083     0.41349910     1.57606934    -1.52642209
O       7.18349121     5.24717421     8.06454545    -0.41349910    -1.57606934     1.52642209
O       2.87698821     0.63705616     7.64309260    -0.98557311    -1.31724760     0.48934719
O       4.71212248     5.24711935     2.82864380     0.98557311     1.31724760    -0.48934719
