# total energy = -19950.83557951 eV

CRYSTAL
PRIMVEC
        5.35172789     0.00000000     0.00000000
        0.00002489     4.66024670     0.00000000
        0.00000000     0.00000000     8.79560734
PRIMCOORD
24 1
Ti      1.93975869     2.76165778     3.26310770    -0.50644606     1.60769186    -2.74571602
Ti      3.41199413     1.89858872     5.53249999     0.50644606    -1.60769186     2.74571602
Ti      4.61552991     1.89859022     1.13466100    -0.50134011    -1.60716710     2.74473206
Ti      0.73622291     2.76165642     7.66094679     0.50134011     1.60716710    -2.74473206
Ti      1.93974645     0.43153453     1.13469627    -0.50661807     1.60763530     2.74407052
Ti      3.41200638     4.22871211     7.66091152     0.50661807    -1.60763530    -2.74407052
Ti      0.73621067     0.43153283     5.53246472     0.50124112     1.60703983     2.74732193
Ti      4.61554216     4.22871377     3.26314297    -0.50124112    -1.60703983    -2.74732193
O       1.69386444     1.64095202     4.48833123     0.17321323    -1.77279377     1.62971491
O       3.65788838     3.01929448     4.30727645    -0.17321323     1.77279377    -1.62971491
O       0.98204830     1.64097085     0.09055572    -0.17301345    -1.77475707     1.63053869
O       4.36970457     3.01927570     8.70505172     0.17301345     1.77475707    -1.63053869
O       3.65787614     0.68917108     0.09052717    -0.17310781     1.77334784     1.62974654
O       1.69387669     3.97107541     8.70508027     0.17310781    -1.77334784    -1.62974654
O       4.36969228     0.68915230     4.48835979     0.17369325     1.77409706     1.63074490
O       0.98206045     3.97109425     4.30724790    -0.17369325    -1.77409706    -1.63074490
O       0.19445569     2.83462624     2.37591306     1.28986997    -0.47407560     0.56219917
O       5.15729713     1.82562026     6.41969463    -1.28986997     0.47407560    -0.56219917
O       2.87032499     1.82557695     2.02191876     1.28924108     0.47368222    -0.56038680
O       2.48142783     2.83466955     6.77368877    -1.28924108    -0.47368222     0.56038680
O       0.19444340     0.50450284     2.02189066     1.29030371    -0.47407483    -0.56004330
O       5.15730942     4.15574366     6.77371688    -1.29030371     0.47407483     0.56004330
O       2.48141554     0.50454615     6.41972268    -1.28924571    -0.47401493    -0.56158982
O       2.87033729     4.15570035     2.37588496     1.28924571     0.47401493     0.56158982
