# total energy = -19518.12597218 eV

CRYSTAL
PRIMVEC
        7.60600008     0.00000000     0.00000000
        0.00000000     7.60600008     0.00000000
       -1.89786986    -1.89786986     4.85670466
PRIMCOORD
23 1
Ti      3.79777500     6.75392703     1.16628798     0.42536475    -0.86885578    -0.20423977
Ti      3.64368398     2.83703100     1.13700299     1.02321665     1.64318236     2.32198598
Ti      0.02157699     6.63355598     1.18278799    -0.17692924    -0.06199678     1.07403015
Ti      0.15575798     2.75711799     1.10285100    -2.80302568     0.33298292     0.33261834
Ti      5.57944225     2.86121223     3.69869481    -0.07710098    -0.75729223    -1.27410987
Ti      5.66804922    -1.02067777     3.62485882     0.24157709    -0.13562137    -0.47109981
Ti      1.89996223     2.89312421     3.71814483     1.58990651     1.56582220     3.22727380
Ti      1.87704420    -0.83969280     3.60975880    -0.06453471    -1.44858140    -0.66869250
O       3.92629802     4.78197600     0.83248498    -0.70571923    -0.28027015    -0.01657102
O       3.98764999     1.10653101     0.86851401    -0.10057542    -1.62687024    -1.08396387
O       0.16874298     4.70671202     0.82115498     0.05984836     0.01833943    -0.06425755
O      -0.19953401     0.91286399     0.73919299     0.51956358    -0.32315719     0.13770474
O       5.78622022     4.67409623     4.13234282    -0.06810392     0.43001408    -1.09627534
O       5.88502422     0.87294624     4.09461682    -0.05250760     0.67741291    -1.16855037
O       1.92152620     4.79283921     3.99498084    -0.52918516    -0.03496033     0.70766993
O       1.60385623     1.01090625     4.07527079    -0.27994002    -0.25568319    -0.07770391
O       3.79915324     2.84820320     3.23992782     0.02483172    -0.05800102     0.11651293
O       3.71782023     6.38748924     3.07924284     0.46620288     1.17749369     1.03810951
O       0.03130724    -1.12341679     3.20156179     0.33847274     0.33959092     0.13181202
O       5.72147501     6.72342001     1.72050098    -0.12574139    -0.15322983    -0.86427768
O       5.96824401     2.82079103     1.79866199     0.16990242     0.33838841     0.79769482
O       1.92074397     6.92840200     1.44767301    -0.32992202    -0.17366446     1.08729216
O       1.78585802     2.63949199     1.96595900     0.45439894    -0.34504320    -3.98296243
