# total energy = -4975.95824273 eV

CRYSTAL
PRIMVEC
        4.82524429     0.00000000     0.00000000
       -0.00000730     2.89514658     0.00000000
       -2.41264932    -1.44762610     5.25489916
PRIMCOORD
6 1
Ti     -0.00020683     2.17146284     1.31372444    -0.00940818    -0.01183762    17.58422147
Ti      2.41279433    -0.72394247     3.94117407     0.00940818     0.01183762   -17.58422147
O       0.00005110     0.72377735     0.85598002     0.00766806     0.01210424   -10.10917977
O       2.41253629     0.72374297     4.39891855    -0.00766806    -0.01210424    10.10917977
O      -0.00001988    -0.72378698     3.48342960    -0.00228340    -0.00012881    -1.76844166
O       2.41260722     2.17130724     1.77146891     0.00228340     0.00012881     1.76844166
