# total energy = -4976.44284246 eV

CRYSTAL
PRIMVEC
        4.69498133     0.00000000     0.00000000
        0.00000000     2.45211076     0.00000000
        0.00000000    -0.00012934     6.53896109
PRIMCOORD
6 1
Ti      2.34749044     1.22599066     3.26948055     0.00000000     0.00000000     0.00000000
Ti      0.00000000     0.00000000     0.00000000     0.00000000     0.00000000     0.00000000
O       2.34749044     0.47785506     1.27434723     0.00000000    -0.06969415     2.14939136
O       2.34749044     1.97412631     5.26461392     0.00000000     0.06969415    -2.14939136
O       0.00000000     0.74808480     4.54382910     0.00000000     0.06994637     2.15294411
O       0.00000000     1.70389657     1.99513199     0.00000000    -0.06994637    -2.15294411
