# total energy = -19958.61924521 eV

CRYSTAL
PRIMVEC
        7.60600008     0.00000000     0.00000000
        0.00000000     7.60600008     0.00000000
       -1.89786986    -1.89786986     4.85670466
PRIMCOORD
24 1
Ti      3.88346398     6.62423801     1.09248500     0.83569008     0.57248667    -0.74434570
Ti      3.78467998     2.70679900     1.25880700    -0.55322756    -0.27327751    -2.05806009
Ti      0.08720502     6.77477200     1.25104000    -1.04057391    -0.78537718     0.19623695
Ti     -0.13469201     2.80063101     1.30471302     0.74999750     1.24483348     0.47120599
Ti      5.58599823     2.91905421     3.75319282     1.98884571    -0.67617159     1.47440480
Ti      5.63519425    -0.84869876     3.64500084     1.63956893     0.65719221     0.50450796
Ti      1.98434124     2.84359523     3.69191880    -2.59932764    -2.59378845    -0.38400905
Ti      2.01742820    -0.96673079     3.48809682    -1.44573724     1.55276099     1.64380842
O       3.83010598     4.61793100     0.83506599    -0.36597173     1.59314867    -0.02324330
O       4.15389499     0.86352202     0.58313899    -0.90632988    -0.92440012     0.35616631
O       7.18199999     4.74422200     0.83759900     2.08680992     0.52091675     0.04690337
O      -0.19109802     0.99735597     0.84653501     0.38872317    -0.63491488    -1.41783382
O       5.79072521     4.75828621     4.19781183    -0.15759300     1.41419982    -1.48529342
O       5.49172022     1.02651724     4.17590882     0.81368658    -2.29467597    -0.80485972
O       1.80773225     4.63405323     3.85414582     0.47848273     1.54146279     0.53670616
O       2.04451224     0.84543125     4.13005979    -0.51703592     0.29524091    -0.51873234
O       3.74850722     2.76887720     3.31122880     1.13950460     0.53444513    -1.35065293
O       3.88533124    -0.75025877     2.98405782     0.44813908    -1.11582473     0.67776130
O      -0.12224079     2.66554820     3.52218182    -0.20848003     0.60310106    -2.00847763
O       0.11618023    -0.79491377     3.32518283    -1.35319189    -0.54780690    -1.18049957
O       5.80224497     6.74383202     1.39168801    -1.39434781    -0.55146841     2.10362905
O       5.65840301     2.79358502     1.38062001    -0.60746423    -0.04113021     2.77453476
O       1.96381001     7.00190599     1.50006600     0.40924573    -1.23814527     0.28704989
O       1.86580098     2.47568602     1.61854598     0.17058684     1.14719246     0.90309261
