# total energy = -19943.14579489 eV

CRYSTAL
PRIMVEC
        5.33167812     0.00000000     0.00000000
        2.43051342     5.12764615     0.00000000
        0.00000000     0.00000000     9.80621608
PRIMCOORD
24 1
Ti      3.37279683     3.03863833     3.63803620     2.63711618    -3.92987145     1.13811492
Ti      4.38939453     2.08900775     6.16817993    -2.63711618     3.92987145    -1.13811492
Ti      5.58842211     2.08900948     1.26503270    -5.67708530     0.47532902     1.42335115
Ti      2.17376935     3.03863679     8.54118359     5.67708530    -0.47532902    -1.42335115
Ti      2.15754025     0.47481534     1.26507200     2.63711618    -3.92987145    -1.13811492
Ti      5.60465115     4.65283090     8.54114429    -2.63711618     3.92987145     1.13811492
Ti      0.95851264     0.47481345     6.16814063     5.67708530    -0.47532902     1.42335115
Ti      6.80367881     4.65283278     3.63807555    -5.67708530     0.47532902    -1.42335115
O       2.54333483     1.80553136     5.00403701     0.50341113     1.41746872    -1.23028720
O       5.21885653     3.32211473     4.80217918    -0.50341113    -1.41746872     1.23028720
O       1.83419532     1.80555207     0.10096051     1.20615533    -0.77421164     0.10481723
O       5.92799611     3.32209411     9.70525541    -1.20615533     0.77421164    -0.10481723
O       4.00359993     0.75829163     0.10092865    -0.50341113    -1.41746872    -1.23028720
O       3.75859144     4.36935451     9.70528721     0.50341113     1.41746872     1.23028720
O       4.71273950     0.75827096     5.00406881    -1.20615533     0.77421164     0.10481723
O       3.04945182     4.36937519     4.80214732     1.20615533    -0.77421164    -0.10481723
O       1.67208820     3.11892509     2.64890361     0.46316435     0.07828215     0.15124931
O       6.09010311     2.00872100     7.15731257    -0.46316435    -0.07828215    -0.15124931
O       3.81167647     2.00867328     2.25423564     1.83882358    -0.26287766    -1.21151120
O       3.95051488     3.11897280     7.55198033    -1.83882358     0.26287766     1.21151120
O       0.45683158     0.55510194     2.25420432     0.46316435     0.07828215    -0.15124931
O       7.30535973     4.57254415     7.55201165    -0.46316435    -0.07828215     0.15124931
O       2.73525827     0.55514965     7.15734379    -1.83882358     0.26287766    -1.21151120
O       5.02693309     4.57249644     2.64887229     1.83882358    -0.26287766     1.21151120
