# total energy = -19960.05730736 eV

CRYSTAL
PRIMVEC
        5.93400000     0.00000000     0.00000000
        0.00000000     9.29699974     0.00000000
        0.00000000     0.00000000     4.64899994
PRIMCOORD
24 1
Ti      4.42848797     6.86375200     2.17078001    -0.13064603     2.39678891     0.92212675
Ti      4.45907701     2.49904200     2.29813800     0.69124391    -2.94906259    -0.13293637
Ti      1.48372998     6.91923702     2.27103899     0.19248879     2.34184287     0.98900451
Ti      1.49090002     2.32352602     2.44264297    -0.61538400    -2.12575289     0.64823063
Ti      3.03676901     4.64716502     0.04159598    -3.06502299    -0.02492763    -0.18674443
Ti      2.97404499     0.07461399     0.09097001     0.44400885    -0.28700747    -1.30868531
Ti      5.90211300     4.63916302     4.53630101     2.64984469    -0.40203918    -0.05010516
Ti      5.91239899     9.29375901     0.14218998    -0.21310391    -0.16647925    -1.83494918
O       4.50448201     5.56444399     0.78669400    -0.02943863    -0.03731932     0.38601015
O       4.50914401     0.84563001     1.08594998    -0.93993036     0.84856437     0.12726503
O       1.48404902     5.55466897     0.86789101    -0.06989958    -0.86763991    -0.89862377
O       1.44560101     0.73569799     1.02773398     0.68670463     1.51362879     0.73353292
O       4.48565801     8.55434001     3.80811502    -0.63180076    -1.25044774    -1.20004536
O       4.36403101     3.77406299     3.71364502     0.85233875     0.24648095     0.33592529
O       1.43819899     8.34926499     3.66727603     0.49176403    -0.17532796    -0.17776022
O       1.55929998     3.70779597     3.74041801    -0.78307475     1.33906265     0.63804803
O       3.02107901     5.99030102     3.17412998     0.26527932     0.39287654    -0.33924510
O       2.89095501     1.48619902     3.42261299     0.08134922     0.45510857    -0.96449649
O       0.02652400     6.00946899     3.06085800    -0.77517683    -0.91069973     1.15268640
O       5.89542102     1.55184801     3.28127901    -0.13485235     0.29366123     0.09816296
O       2.99926500     7.87303398     1.28441802     0.40849188    -1.91305676     1.65825777
O       2.87875202     3.13264899     1.44283500     0.92149657     1.47055585    -1.28569887
O       0.03367700     7.80157701     1.29197202    -0.51433575    -1.10699942     1.24109073
O       5.87035400     3.23094901     1.37013298     0.21765579     0.91818884    -0.55105060
