# total energy = -19074.22870941 eV

CRYSTAL
PRIMVEC
        5.17600016     0.00000000     0.00000000
        0.00000000     5.50899976     0.00000000
        0.00000000     0.00000000     9.26300011
PRIMCOORD
22 1
Ti      1.84036301     3.35670899     3.23406401    -0.84188233     1.19897167     1.83413080
Ti      3.69601400     2.38999502     5.93625800     0.65542689    -0.66921726    -0.64795603
Ti      4.31082901     2.36782800     1.20071101     0.08083166    -1.10083854    -1.42585027
Ti      0.80888198     3.18314102     8.13997300    -0.04445182     0.81147954     0.95074211
Ti      1.76501198     0.57746499     1.31473701     0.33342284    -0.38670871    -2.68100030
Ti      3.16317500     4.97477400     7.85450701     0.63486500     1.40841561     2.83601860
Ti      0.73141101     0.08166501     6.05723798    -1.35552568     2.01687845    -0.88313184
Ti      4.47572699     5.02445300     3.41638600    -0.76178035     0.97269317     0.99605242
O       3.50831801     3.50468102     4.40426499    -0.60358932    -0.38672028     1.29139978
O       0.84236202     1.98264401     0.34373899     0.35485222     0.21863384    -1.02594665
O       4.35892900     3.59407203     9.04149402    -0.99731843     0.52089258     0.17943864
O       3.36570902     0.81749402     0.15672399     0.00745029     0.90772368     0.03511305
O       1.58695098     4.76576698     8.98354499    -0.42323408    -0.05177330     0.35761950
O       4.27117099     0.83466397     4.89586600     0.48750654    -0.65585164    -0.41239224
O       0.98315698     4.84103001     4.36367001    -0.06960467    -0.79945680     0.96673206
O       0.05179201     3.56654999     2.40908202     0.34539030    -0.63238414     0.23970635
O       0.26415502     2.07701102     6.73078102    -0.81476901    -1.01228997    -0.72896047
O       2.60561999     2.03677402     2.34734101     0.98087776    -1.62563766    -0.96987575
O       2.63704200     3.34117298     7.24023002    -0.96380023    -1.52966477    -1.41064836
O       5.07378502     0.77957202     2.10345602     0.65258428    -1.02123947     1.32349924
O       2.42158003     0.61269200     6.56209699     0.67076507     0.50615784     0.02215469
O       2.54536602     4.69682900     2.36499002     1.67198258     1.30993692    -0.84684482
