# total energy = -19961.41955679 eV

CRYSTAL
PRIMVEC
        5.93400000     0.00000000     0.00000000
        0.00000000     9.29699974     0.00000000
        0.00000000     0.00000000     4.64899994
PRIMCOORD
24 1
Ti      4.45839099     6.92747002     2.31567599    -0.50072895     0.55518777     0.16756657
Ti      4.43966298     2.32237501     2.33100398     0.11849242    -0.05591457     0.54844813
Ti      1.47968299     6.98922998     2.33926000     0.65840217     0.39265439     0.01701068
Ti      1.46560698     2.35910599     2.31856599    -0.16244416    -0.50878242     0.16351374
Ti      2.96590497     4.66008002     0.01909102     0.12030530    -0.11334712    -0.12817443
Ti      2.99013002     0.00713199     4.63985597    -0.14027327    -0.47989813    -0.23068666
Ti      0.01253499     4.65245801     0.00313802    -0.17052899    -0.09713683    -0.09760194
Ti      5.93041499     9.27760402     0.04414000     0.11937225    -0.10061142    -0.52061156
O       4.39183298     5.57463399     0.86463700     0.47036139    -0.37664181     0.04200130
O       4.42293601     0.89232498     0.83325001     0.39384430     0.35952340     0.49635036
O       1.49924498     5.57373200     0.91318202    -0.16809159    -0.02924965    -0.10346097
O       1.46930202     0.92067300     0.94477401     0.06260767    -0.34350054    -0.57466671
O       4.46258599     8.35920399     3.66052298    -0.01330032     0.64641260     0.88171825
O       4.46686200     3.70701999     3.68431500    -0.19990206     0.42958008     0.65923829
O       1.46661401     8.36771999     3.72946298    -0.15712069     0.05457014    -0.04052549
O       1.45053803     3.73362602     3.80265502     0.34606496    -0.13750445    -0.51907224
O       2.99025099     6.13203702     3.23484698    -0.81421391    -0.68787628     0.06552253
O       2.99140502     1.39919100     3.25418698    -0.09060082     0.52775563    -0.64605367
O       5.87756399     5.98632801     3.24575100     0.75370837     0.73026736    -0.64596445
O       5.92365998     1.40763202     3.18925101     0.25946786     0.11124962     0.02837933
O       3.00110600     7.87632298     1.38018502    -0.77831950    -0.14545970     0.20305758
O       3.01255301     3.25421799     1.38552500    -0.35279688    -0.27591752     0.29974883
O       5.88161299     7.89064199     1.39826500     0.73452459    -0.31373641     0.12208477
O       0.06590400     3.28050699     1.45406700    -0.48883040    -0.14162361    -0.18782250
