# total energy = -4985.47538485 eV

CRYSTAL
PRIMVEC
        3.91153803     0.00000000     0.00000000
       -0.00000729     3.20034912     0.00000000
       -1.95579512    -1.60021113     4.58401481
PRIMCOORD
6 1
Ti     -0.00016977     2.40038112     1.14600383    -0.00277242    -0.00918733     7.99230439
Ti      1.95590540    -0.80024333     3.43801113     0.00277242     0.00918733    -7.99230439
O       0.00004035     0.80008054     0.74669861     0.00243149     0.00467221    -1.36001843
O       1.95569518     0.80005715     3.83731640    -0.00243149    -0.00467221     1.36001843
O      -0.00001892    -0.80007326     3.03870591     0.00001800    -0.00047643     1.38933596
O       1.95575436     2.40021096     1.54530904    -0.00001800     0.00047643    -1.38933596
