# total energy = -4987.57920468 eV

CRYSTAL
PRIMVEC
        3.39551702     0.00000000     0.00000000
        0.00000000     4.81357442     0.00000000
        0.00000000    -0.00006584     5.07961913
PRIMCOORD
6 1
Ti      1.69775851     2.40675412     2.53980957     0.00000000     0.00000000     0.00000000
Ti      0.00000000     0.00000000     0.00000000     0.00000000     0.00000000     0.00000000
O       1.69775851     0.93808186     0.98994294     0.00000000    -0.20000413    -0.26728376
O       1.69775851     3.87542632     4.08967613     0.00000000     0.20000413     0.26728376
O       0.00000000     1.46864559     3.52975354     0.00000000     0.19999822    -0.26661398
O       0.00000000     3.34486265     1.54986554     0.00000000    -0.19999822     0.26661398
