# total energy = -19947.80321555 eV

CRYSTAL
PRIMVEC
        6.26266030     0.00000000     0.00000000
        0.00002912     5.45348018     0.00000000
        0.00000000     0.00000000    10.29273199
PRIMCOORD
24 1
Ti      2.26993039     3.23172719     3.81853029     0.23497912    -0.36331989     0.30343708
Ti      3.99275909     2.22175275     6.47420211    -0.23497912     0.36331989    -0.30343708
Ti      5.40115203     2.22175452     1.32779479     0.23585612     0.36352224    -0.30339697
Ti      0.86153745     3.23172560     8.96493773    -0.23585612    -0.36352224     0.30339697
Ti      2.26991606     0.50498722     1.32783606     0.23497912    -0.36331989    -0.30343708
Ti      3.99277342     4.94849290     8.96489646    -0.23497912     0.36331989     0.30343708
Ti      0.86152312     0.50498522     6.47416084    -0.23585612    -0.36352224    -0.30339697
Ti      5.40116636     4.94849484     3.81857156     0.23585612     0.36352224     0.30339697
O       1.98218180     1.92026300     5.25230251     0.90565780     0.89514044    -0.37552467
O       4.28050768     3.53321695     5.04042989    -0.90565780    -0.89514044     0.37552467
O       1.14920546     1.92028503     0.10596946    -0.90526956     0.89514892    -0.37615716
O       5.11348408     3.53319497    10.18676265     0.90526956    -0.89514892     0.37615716
O       4.28049335     0.80647680     0.10593605    -0.90565780    -0.89514044    -0.37552467
O       1.98219612     4.64700314    10.18679606     0.90565780     0.89514044     0.37552467
O       5.11346969     0.80645482     5.25233592     0.90526956    -0.89514892    -0.37615716
O       1.14921967     4.64702518     5.04039648    -0.90526956     0.89514892     0.37615716
O       0.22755454     3.31711581     2.78032379    -0.50847543    -0.01688033     0.14536611
O       6.03513494     2.13636413     7.51240860     0.50847543     0.01688033    -0.14536611
O       3.35889095     2.13631345     2.36607515    -0.50844638     0.01721457    -0.14543245
O       2.90379853     3.31716649     7.92665708     0.50844638    -0.01721457     0.14543245
O       0.22754015     0.59037566     2.36604226    -0.50847543    -0.01688033    -0.14536611
O       6.03514933     4.86310428     7.92668996     0.50847543     0.01688033     0.14536611
O       2.90378414     0.59042635     7.51244143     0.50844638    -0.01721457    -0.14543245
O       3.35890534     4.86305360     2.78029091    -0.50844638     0.01721457     0.14543245
