# total energy = -19906.79028234 eV

CRYSTAL
PRIMVEC
        8.02241671     0.00000000     0.00000000
        0.00003027     5.12296623     0.00000000
        0.00000000     0.00000000    12.25246857
PRIMCOORD
24 1
Ti      2.90775791     3.03586502     4.54557847     0.54027228    -0.53613152     2.09024260
Ti      5.11468855     2.08710114     7.70689023    -0.54027228     0.53613152    -2.09024260
Ti      6.91882824     2.08710286     1.58060693     0.53952537     0.53622510    -2.09082521
Ti      1.10361828     3.03586349    10.67186184    -0.53952537    -0.53622510     2.09082521
Ti      2.90774304     0.47438197     1.58065608     0.54014655    -0.55535540    -2.08961113
Ti      5.11470342     4.64858432    10.67181276    -0.54014655     0.55535540     2.08961113
Ti      1.10360334     0.47438012     7.70684108    -0.53934771    -0.55567062    -2.09111883
Ti      6.91884311     4.64858618     4.54562755     0.53934771     0.55567062     2.09111883
O       2.53915605     1.80388344     6.25234095     0.74262666     1.45583988    -1.90669739
O       5.48329047     3.31908265     6.00012775    -0.74262666    -1.45583988     1.90669739
O       1.47212025     1.80390413     0.12614604    -0.74235001     1.45640887    -1.90770783
O       6.55032634     3.31906203    12.12632227     0.74235001    -1.45640887     1.90770783
O       5.48327560     0.75759947     0.12610627    -0.74259966    -1.45688478    -1.90743889
O       2.53917093     4.36536662    12.12636204     0.74259966     1.45688478     1.90743889
O       6.55031140     0.75757885     6.25238065     0.74233792    -1.45661661    -1.90724452
O       1.47213499     4.36538731     6.00008799    -0.74233792     1.45661661     1.90724452
O       0.29149126     3.11607847     3.30969743    -2.18325409     0.71332481     0.24953774
O       7.73095527     2.00688763     8.94277120     2.18325409    -0.71332481    -0.24953774
O       4.30270885     2.00684000     2.81657583    -2.18345283    -0.71318160    -0.25019543
O       3.71973761     3.11612616     9.43589261     2.18345283     0.71318160     0.25019543
O       0.29147632     0.55459529     2.81653672    -2.18381202     0.71300291    -0.25012112
O       7.73097014     4.56837081     9.43593172     2.18381202    -0.71300291     0.25012112
O       3.71972274     0.55464298     8.94281025     2.18439103     0.71308904    -0.25037823
O       4.30272372     4.56832311     3.30965833    -2.18439103    -0.71308904     0.25037823
