# total energy = -19073.45889860 eV

CRYSTAL
PRIMVEC
        5.93400000     0.00000000     0.00000000
        0.00000000     9.29699974     0.00000000
        0.00000000     0.00000000     4.64899994
PRIMCOORD
22 1
Ti      4.32583002     6.96506002     2.43038998     1.99973896     0.36521120    -0.18325467
Ti      4.33451901     2.27886701     2.06605499     0.70955814     1.11022358     1.29645174
Ti      1.60910101     7.14400300     2.59878101    -1.66899984     0.55042814     0.18169607
Ti      1.56894398     2.54081498     2.15828699    -1.24693664    -0.28884915     0.73511209
Ti      3.02915801     4.69363800     4.61058400    -1.79726297    -0.98197691    -0.72869307
Ti      3.02264299     0.21241000     4.64173302    -0.44184604     0.52376528     0.08940732
Ti      5.77829701     4.54237602     4.45506299     1.06948341     0.10656378    -0.55881740
Ti      0.04153899     8.96687802     0.15691799    -1.21474154     0.74208415     1.13474960
O       4.43585201     5.33782098     0.88192400     1.15772267     1.81975807     1.73716650
O       4.50455001     0.83361297     0.99728602     0.99371657    -0.69766062    -0.89557161
O       1.48048099     0.85985101     0.90713501    -0.99295321     0.80703539     0.22883778
O       4.33309600     8.35169301     3.87887099     0.97871341    -0.15921279     0.20697054
O       4.28181899     3.80679202     3.53351399     1.64748098    -0.67883936    -0.37855831
O       1.55048299     8.31861298     4.08165298     1.35249718    -0.85744651    -1.78784707
O       1.69448599     3.69404102     3.67260802    -2.54593995    -0.17286896    -0.70898556
O       2.90359398     5.90630699     3.06624899     0.23282505     0.00349362     0.38663390
O       3.03985400     1.37741399     3.13378201    -0.68404739    -0.16953552     0.75663018
O       5.88934702     6.35186101     3.53164298     0.19707359    -2.07968359    -0.19757624
O       3.02671400     8.17599902     1.79511603    -0.72032978    -1.43472520    -1.05964071
O       2.95738803     3.05542002     1.15814003     0.71413188     1.49384029    -0.83535661
O       0.07513100     7.83549097     1.52417902    -0.36251565    -0.71615688     0.39727287
O       5.88115700     3.03348800     1.24884302     0.62263194     0.71455251     0.18337269
