# total energy = -4978.99024343 eV

CRYSTAL
PRIMVEC
        3.87169037     0.00000000     0.00000000
        0.00000000     2.30103265     0.00000000
        0.00000000    -0.00009186     5.24601343
PRIMCOORD
6 1
Ti      1.93584519     1.15047026     2.62300648     0.00000000     0.00000000     0.00000000
Ti      0.00000000     0.00000000     0.00000000     0.00000000     0.00000000     0.00000000
O       1.93584519     0.44841942     1.02237067    -0.00000000    -1.85255739    -2.20400315
O       1.93584519     1.85252109     4.22364228    -0.00000000     1.85255739     2.20400315
O       0.00000000     0.70201450     3.64537830     0.00000000     1.85235247    -2.20317757
O       0.00000000     1.59892601     1.60063465     0.00000000    -1.85235247     2.20317757
