# total energy = -19518.92363942 eV

CRYSTAL
PRIMVEC
        7.60600008     0.00000000     0.00000000
        0.00000000     7.60600008     0.00000000
       -1.89786986    -1.89786986     4.85670466
PRIMCOORD
23 1
Ti      3.80595502     6.60201997     1.18024799     0.40897113     1.30530148     0.46292138
Ti      3.78761702     2.83899298     1.22927499     0.34721964    -1.02708590     1.37992726
Ti      0.03845198     6.71305300     1.16711402    -0.62205936    -0.15450305     0.52671048
Ti     -0.02564001     2.87791502     1.19436702    -0.09463309    -0.19665938    -0.66872927
Ti      5.63363524     2.89662922     3.70609282    -1.43427012    -1.57740811    -0.62200356
Ti      5.73217725    -1.01288875     3.59024682    -0.12184745     2.16492700    -0.37535960
Ti      1.86990523     2.79176523     3.71388082     1.52951333     0.62202696    -0.92278469
Ti      1.90139821    -0.94749880     3.60637482     0.21257863    -0.32777849     0.45495996
O       3.96035000     4.72299602     0.88966899    -0.79977767     0.01619436    -0.43837557
O       3.79245899     0.91643101     0.82024802    -0.04318067     0.15166300    -0.76854159
O      -0.21007400     4.77145902     0.79110602     0.95876164     0.53866020     0.26042971
O      -0.01761001     0.93008701     0.75195198     0.26371352     0.14988946    -0.24716872
O       5.75818123     4.80452323     3.93899484     0.35369651    -0.84626144     0.30163062
O       5.69989522     1.01508923     4.12857179     0.79810774    -0.43596516    -0.74617864
O       1.84490224     4.75473723     3.95546479    -0.25846538    -0.32520688     0.88151436
O       1.99446525     0.95313723     4.06923679    -1.01060744    -0.17197293     0.59128967
O       3.74385824     2.82354624     3.36788479     0.77359329     0.50321881    -1.34027158
O       3.81551424    -0.74949279     3.11538781     0.06217521    -0.85894315     0.42134174
O       0.05688121    -0.81237778     3.10562380    -0.50623317    -0.03826189     1.26509635
O       5.77839099     6.67156498     1.64869702    -1.10748176    -0.04093583    -0.47694933
O       5.75619999     2.70192702     1.66971298    -0.11729043     0.36401589     0.76294995
O       1.87077303     6.55222598     1.63528698     1.18054071    -0.16484120    -0.81234754
O       1.88039098     2.76728703     1.68381201    -0.77302508     0.34992650     0.10993836
