# total energy = -19943.73188782 eV

CRYSTAL
PRIMVEC
        5.82575814     0.00000000     0.00000000
        1.22782609     6.07758262     0.00000000
        0.00000000     0.00000000    10.47987257
PRIMCOORD
24 1
Ti      2.83916563     3.60156983     3.88795811     0.11007977    -1.78248683     0.85441826
Ti      4.21441831     2.47601293     6.59191488    -0.11007977     1.78248683    -0.85441826
Ti      5.52455777     2.47601511     1.35193651    -0.35370114    -0.32757718    -0.08134485
Ti      1.52902620     3.60156789     9.12793660     0.35370114     0.32757718     0.08134485
Ti      2.22525273     0.56277875     1.35197853     0.11007977    -1.78248683    -0.85441826
Ti      4.82833124     5.51480420     9.12789458    -0.11007977     1.78248683     0.85441826
Ti      0.91511320     0.56277640     6.59187286     0.35370114     0.32757718    -0.08134485
Ti      6.13847077     5.51480655     3.88800013    -0.35370114    -0.32757718     0.08134485
O       2.27622757     2.14002019     5.34779892     1.54848576     1.76579471    -0.54438759
O       4.77735638     3.93756258     5.13207407    -1.54848576    -1.76579471     0.54438759
O       1.50136724     2.14004466     0.10789618    -0.68758806     0.19988972     0.74835405
O       5.55221677     3.93753816    10.37197651     0.68758806    -0.19988972    -0.74835405
O       4.16344346     0.89877132     0.10786216    -1.54848576    -1.76579471    -0.54438759
O       2.89014049     5.17881145    10.37201053     1.54848576     1.76579471     0.54438759
O       4.93830385     0.89874690     5.34783294     0.68758806    -0.19988972     0.74835405
O       2.11528005     5.17883594     5.13204005    -0.68758806     0.19988972    -0.74835405
O       0.95849664     3.69673020     2.83087514     0.34843834     1.03014320     1.14999599
O       6.09508731     2.38085257     7.64899785    -0.34843834    -1.03014320    -1.14999599
O       3.60553497     2.38079580     2.40909470     0.75299952     1.15200917     0.34784982
O       3.44804898     3.69678696     8.07077811    -0.75299952    -1.15200917    -0.34784982
O       0.34458371     0.65793894     2.40906121     0.34843834     1.03014320    -1.14999599
O       6.70900024     5.41964389     8.07081160    -0.34843834    -1.03014320     1.14999599
O       2.83413605     0.65799564     7.64903128    -0.75299952    -1.15200917     0.34784982
O       4.21944790     5.41958713     2.83084165     0.75299952     1.15200917    -0.34784982
