# total energy = -39040.33406602 eV

CRYSTAL
PRIMVEC
        7.60629642    -0.00000847    -0.00005503
       -0.00000847     7.60629642    -0.00005503
       -3.80314186    -3.80314186     9.70738094
PRIMCOORD
46 1
Ti      1.91438263     4.75392058     6.22451852     0.00082250     0.00036381    -0.24248880
Ti      3.80664407     6.63688552     1.20109686    -0.01937995    -0.01435910    -0.07065805
Ti      1.81968469     0.95087062     5.99265205    -0.07197677     0.00012316    -0.17469727
Ti      3.80673662     2.87128469     1.20110246    -0.01974094     0.01399375    -0.07101801
Ti     -1.90948415     4.75404077     6.06344127     0.01278070     0.00007482     0.09667326
Ti     -0.00397855     6.67719355     1.22710222     0.00358309    -0.07742674     0.00575465
Ti     -1.81633167     0.95086591     6.02205055     0.02764297    -0.00012676     0.07596250
Ti     -0.00404001     2.83085588     1.22710074     0.00403663     0.07688218     0.00585080
Ti      3.80324704     0.95072083     8.62820274    -0.02151963     0.00040906    -0.15211835
Ti      5.69514932     2.86780413     3.63944260    -0.02240023    -0.02584268    -0.00453440
Ti      3.84252410    -2.85245099     8.51337956    -0.13610242     0.00014450     0.06477948
Ti      5.69508363    -0.96662401     3.63942903    -0.02221408     0.02638493    -0.00476837
Ti      0.01430149     0.95057932     8.44800750    -0.00343371     0.00008022    -0.23366760
Ti      1.90783500     2.77461187     3.59199222     0.02323738     0.03249798     0.08360742
Ti     -0.03623605    -2.85262013     8.51787650     0.14367150     0.00013267    -0.02285300
Ti      1.90778699    -0.87285922     3.59217980     0.02338034    -0.03356294     0.08275021
O       1.98460009     2.91527914     5.59706097     0.01905008     0.01437967     0.08583040
O       3.81768644     4.75393618     0.75838261     0.06773882     0.00024220    -0.06703640
O       1.98462190    -1.01370404     5.59706124     0.01889453    -0.01399298     0.08582705
O       3.78371697     0.95077302     0.78841887    -0.00884306    -0.00001234     0.05492135
O      -2.00431557     2.82979088     5.67337600    -0.04145237    -0.04065944    -0.09281274
O      -0.01619091     4.75392616     0.82832560    -0.05968535     0.00022163     0.08754327
O      -2.00430908    -0.92821252     5.67340125    -0.04141997     0.04070649    -0.09276544
O       0.01738186     0.95079867     0.83042724     0.01113185    -0.00016558     0.17091903
O       3.79928617     2.86716745     8.94121387    -0.00120251     0.01085546     0.08203159
O       5.71887249     4.75390600     4.09586109     0.02931470    -0.00019438    -0.00257625
O       3.79929260    -0.96559891     8.94127749    -0.00136706    -0.01071276     0.08175443
O       5.66506684     0.95076074     4.01997508    -0.00154626    -0.00009050     0.01790620
O       0.00478480     2.83272262     8.88184657     0.00436779     0.02306795     0.03103605
O       0.00478768    -0.93114145     8.88184716     0.00462979    -0.02308646     0.03103785
O       1.95013643     0.95087759     4.02417231    -0.00946835    -0.00083689    -0.11240096
O       2.00867294     0.95087342     7.97387838     0.02719045    -0.00004757     0.10028206
O       3.78290319     2.97012976     3.22643685    -0.00812469     0.09106028    -0.07791808
O       1.90054190    -2.85232827     8.12285371    -0.03087999    -0.00011750     0.04055660
O       3.78286130    -1.06849703     3.22645756    -0.00801336    -0.09092118    -0.07763217
O      -2.00633617     0.95087513     7.98809571     0.06464656     0.00000643     0.12097019
O       0.01849534     2.92888340     3.26863054     0.01047314    -0.01021937    -0.03146440
O      -1.90199823    -2.85230914     8.08984298     0.03646237    -0.00002031     0.09263842
O       0.01853149    -1.02729835     3.26862561     0.01023274     0.01020188    -0.03112450
O       3.81446732     4.75391287     6.51543600     0.00231477     0.00010953     0.12006722
O       5.70328549     6.66528995     1.66064939    -0.02482170     0.02565859    -0.02607640
O       5.70329414     2.84243352     1.66068005    -0.02484072    -0.02551821    -0.02638133
O      -0.01403583     4.75386807     6.48427851    -0.02125609     0.00008048     0.01205488
O       1.90072836     6.61675525     1.61021242     0.01932519     0.00814603     0.05992704
O       0.00995902     0.95076576     6.45320337     0.01528907    -0.00011339    -0.13616002
O       1.90073460     2.89111346     1.61015992     0.01947226    -0.00779713     0.06047108
