# total energy = -39037.11183930 eV

CRYSTAL
PRIMVEC
        7.60600008     0.00000000     0.00000000
        0.00000000     7.60600008     0.00000000
       -3.79573973    -3.79573973     9.71340985
PRIMCOORD
46 1
Ti      1.95685344     4.77101245     6.17661465    -0.12563572     0.10312236     0.03522130
Ti      3.67075198     6.86622500     1.32717300     1.34347158    -0.51786562     0.12270723
Ti      2.00031646     0.65346945     6.09376264    -0.30160285     0.02004356    -0.38743994
Ti      3.74477202     2.80196798     1.13087401     0.33168400     0.56473299     1.39124063
Ti     -1.88582156     4.68912544     6.03192161    -0.08845549     0.10900016     0.69985660
Ti     -0.12397702     6.68343702     1.29094198    -0.91213467     0.50879476     0.05219418
Ti     -1.82331757     0.93268348     5.99467562     0.29604516     0.24835966    -0.13313897
Ti      0.05205998     2.91959699     1.11397399    -0.94406469    -0.20153651     0.32370638
Ti      3.92490444     1.06060244     8.45217663    -0.13985032    -1.04796635     0.11998726
Ti      5.68058300     2.84369699     3.51896802    -0.71128927    -0.71568894    -0.08789731
Ti      3.78242642    -2.85643355     8.50777860     0.84906985     1.02280476     0.57916306
Ti      5.64062599    -1.00468100     3.71372498    -0.34845377     0.91764351    -1.05691071
Ti      0.13597045     1.05932745     8.41424864    -0.40527260    -0.36126275     0.06719581
Ti      1.86758902     2.72764398     3.58255999     0.34239651    -0.99999006    -0.04040799
Ti      0.00874143    -2.80572852     8.46461462    -0.73569393     0.07385034     0.48000483
Ti      1.82771102    -1.11854402     3.60671502    -0.10189234     0.50253618     1.83772443
O       1.70685847    -1.10939555     5.75561964    -0.10280843     0.51418123    -1.64591338
O       3.53872601     1.01814401     0.84465701    -0.33117826    -0.49794908    -0.74867518
O      -1.98376057     2.81914947     5.62503060     0.15639075     0.79040960    -0.14042522
O      -0.17858102     4.85640102     0.80386199     0.59323368    -0.87125797    -0.12533927
O      -1.63689356    -1.07959155     5.55324861    -0.49072864     1.53984660     1.28747499
O       0.07361797     0.92228303     0.80342997    -0.11460799     1.02292508    -0.45393949
O       3.65454143     2.88485047     8.88774263     0.05140306     0.16260974    -0.53520180
O       5.68549397     4.76909402     3.94006901    -0.34908163    -2.02211785     0.45794990
O       3.98591947    -0.87181656     8.95136762     0.02468003     0.00773414     0.14055198
O       5.63412198     0.97545899     4.04591701     0.22478238    -0.44061705     0.51741568
O       0.13468244     2.87501545     9.11198165     0.23400544    -0.67128263    -0.96851152
O       2.06051699     4.43303699     4.21594801    -0.32483689     1.61582658     0.44879779
O      -0.09201657    -0.91884157     8.98094064     0.09908187     1.46062034    -1.28235360
O       1.98011798     0.90549001     4.19130099    -0.25478382     0.20043042    -0.56943503
O       2.00570947     0.69853043     7.96575161    -0.54881940     0.93250372     1.86684579
O       3.81570299     2.67646301     3.12655102    -0.27906481     0.49736235     0.69270918
O       1.88905843    -2.46430056     8.11641662     0.14742660    -1.43506948     0.28794901
O       3.71704800    -0.92201801     3.30647599    -0.20448557    -0.58464876    -0.08130808
O      -1.82047558     1.09037544     8.03073362     0.04914280     0.08030175     0.10806582
O      -0.03959802     2.74524801     3.14332498    -0.56703722     0.02905425     0.33442660
O      -1.92460956    -2.80072055     8.14641261     0.45581202    -0.64495375    -0.94149102
O      -0.15693302    -0.91730902     3.30043803     2.26481825    -0.40156481    -0.64978203
O       3.82062847     5.05017446     6.51131365     0.37192641    -1.31320274    -0.10172831
O       5.64325600     6.79608599     1.62020199    -0.96997988    -0.23731600     0.21854899
O       3.87682244     0.79859044     6.45996361     0.57840432     0.35839469    -0.14107160
O       5.56506202     2.72108101     1.44104702     1.75804078     0.98533400     0.58429421
O       0.02061246     4.68050446     6.49467362    -0.27584785    -0.91041897     0.50932621
O       1.80571100     6.77252501     1.76634402    -0.06207237    -0.89650390    -0.64683709
O       0.13385247     1.05225743     6.42549062    -0.82093066     0.20666252    -0.02917843
O       1.84884900     3.11421801     1.78653198     0.33879413     0.29612820    -2.39637188
