# total energy = -4983.50216978 eV

CRYSTAL
PRIMVEC
        2.88941666     0.00000000     0.00000000
        1.74126265     4.17903007     0.00000000
       -0.00001110    -0.00006015     4.62433932
PRIMCOORD
6 1
Ti      2.31533403     2.08948482     2.31216961     0.00000000     0.00000000     0.00000000
Ti      0.00000000     0.00000000     0.00000000     0.00000000     0.00000000     0.00000000
O       1.78405254     0.81441959     0.90121560    -5.85380732     2.63971043     3.26989910
O       2.84661552     3.36455006     3.72312357     5.85380732    -2.63971043    -3.26989910
O       0.53127673     1.27504096     3.21338623     5.85508078    -2.64184033     3.27286153
O       1.20997480     2.90392886     1.41095300    -5.85508078     2.64184033    -3.27286153
