# total energy = -19961.31991764 eV

CRYSTAL
PRIMVEC
        7.60600008     0.00000000     0.00000000
        0.00000000     7.60600008     0.00000000
       -1.89786986    -1.89786986     4.85670466
PRIMCOORD
24 1
Ti      3.81859299     6.51720397     1.25099502     1.08007276    -0.01787226    -0.67102475
Ti      3.84401398     2.69865797     1.24999599     0.37337240     0.19428754    -0.42505365
Ti      0.06949801     6.72343800     1.21259702    -1.07736513     0.36568505    -1.32312514
Ti      0.00198600     2.91505300     1.25887299    -0.69677101    -0.54703480    -0.36928614
Ti      5.69064721     2.88808724     3.66858479    -1.16814773     0.13566071    -0.95205980
Ti      5.73365424    -0.82506078     3.62394382    -1.60316698    -0.06565674    -0.52105379
Ti      1.81672524     2.76805825     3.60540679     1.55329578     0.68431582     1.62865690
Ti      1.83370321    -0.96384376     3.59866380     2.28968289    -0.75255626     1.41718822
O       3.84400498     4.67075400     0.80165998    -0.08302892    -0.15074461     0.05153315
O       3.87613599     0.81382000     0.77639801    -0.40918942     1.69915581    -0.25992114
O      -0.03995198     4.74526200     0.70751400     0.44714123     0.37472917     1.42704737
O      -0.05176502     1.07836301     0.72647998     0.75640418    -0.93837458     0.22903987
O       5.69912923     4.82352022     4.09521283     0.31831375     0.24480176    -0.08255584
O       5.42166123     1.01621220     3.94053580     1.25080976    -0.26289514     0.86716194
O       1.88558020     4.71077424     4.09696383    -0.33587207     0.01419635    -0.97668455
O       1.93374824     0.91510320     4.09690080    -0.16873642    -0.18601553    -0.28755768
O       3.80386525     2.89638225     3.11485683     0.25173578     0.21886190     1.13874818
O       3.77466424    -0.84273276     3.20222183     0.38455696    -0.71974332    -0.05933645
O      -0.01714275     2.86045625     3.30853380    -0.33947445     0.03571881    -0.78292563
O       0.04430325    -0.65948175     3.19385083    -0.93537513    -0.49400680    -0.28890494
O       5.72385202     6.64687902     1.56871500     1.25752342    -0.21647720     0.93787399
O       5.74608599     2.74534601     1.64590101     0.34715948     0.46369246     0.02985155
O       1.96697301     6.61957898     1.55205698    -2.31125728    -0.15718471     0.52372954
O       1.91459599     2.74647300     1.71448598    -1.18168382     0.07745683    -1.25134146
