# total energy = -19944.37797371 eV

CRYSTAL
PRIMVEC
        4.70993478     0.00000000     0.00000000
        0.00002581     5.01279491     0.00000000
        0.00000000     0.00000000     8.42974760
PRIMCOORD
24 1
Ti      1.70714012     2.97057763     3.12737630    -0.07241232     1.00320934    -1.21548253
Ti      3.00282047     2.04221733     5.30237155     0.07241232    -1.00320934     1.21548253
Ti      4.06202506     2.04221905     1.08746394    -0.06842942    -1.00336361     1.21577641
Ti      0.64793554     2.97057610     7.34228400     0.06842942     1.00336361    -1.21577641
Ti      1.70712731     0.46418027     1.08749774    -0.07207448     1.00168854     1.21538174
Ti      3.00283328     4.54861484     7.34225019     0.07207448    -1.00168854    -1.21538174
Ti      0.64792273     0.46417840     5.30233774     0.06874721     1.00086270     1.21637007
Ti      4.06203787     4.54861670     3.12741010    -0.06874721    -1.00086270    -1.21637007
O       1.49073318     1.76509035     4.30163576    -2.20368254    -1.92177666    -0.28303640
O       3.21922741     3.24770466     4.12811208     2.20368254     1.92177666     0.28303640
O       0.86427992     1.76511054     0.08678898     2.20359255    -1.92282104    -0.28198379
O       3.84568072     3.24768447     8.34295862    -2.20359255     1.92282104     0.28198379
O       3.21921460     0.74130715     0.08676163     2.20384298     1.92205382    -0.28276257
O       1.49074600     4.27148781     8.34298597    -2.20384298    -1.92205382     0.28276257
O       3.84566791     0.74128696     4.30166312    -2.20296340     1.92198594    -0.28207018
O       0.86429264     4.27150804     4.12808473     2.20296340    -1.92198594     0.28207018
O       0.17113851     3.04906604     2.27708518    -0.79252896     0.47439571    -0.53347402
O       4.53882209     1.96372892     6.15266266     0.79252896    -0.47439571     0.53347402
O       2.52610967     1.96368220     1.93781554    -0.79252279    -0.47528685     0.53347222
O       2.18385092     3.04911275     6.49193216     0.79252279     0.47528685    -0.53347222
O       0.17112570     0.54266853     1.93778862    -0.79207053     0.47447412     0.53321768
O       4.53883490     4.47012643     6.49195908     0.79207053    -0.47447412    -0.53321768
O       2.18383811     0.54271525     6.15268953     0.79290023     0.47456411     0.53390931
O       2.52612248     4.47007971     2.27705826    -0.79290023    -0.47456411    -0.53390931
