# total energy = -4981.30019095 eV

CRYSTAL
PRIMVEC
        3.57500927     0.00000000     0.00000000
        0.00000000     5.60150356     0.00000000
        0.00000000    -0.00007269     5.60150356
PRIMCOORD
6 1
Ti      1.78750457     2.80071537     2.80075172     0.00000000     0.00000000     0.00000000
Ti      0.00000000     0.00000000     0.00000000     0.00000000     0.00000000     0.00000000
O       1.78750457     1.09163636     1.09165053     0.00000000    -0.94932594    -0.94932594
O       1.78750457     4.50979438     4.50985291     0.00000000     0.94932594     0.94932594
O       0.00000000     1.70904954     3.89240338     0.00000000     0.94897550    -0.94897550
O       0.00000000     3.89238120     1.70910005     0.00000000    -0.94897550     0.94897550
