# total energy = -4960.61880841 eV

CRYSTAL
PRIMVEC
        5.41663395     0.00000000     0.00000000
       -0.00000748     2.60800877     0.00000000
       -2.70834732    -1.30407725     5.83545822
PRIMCOORD
6 1
Ti     -0.00023141     1.95609306     1.45886425    -0.01536800    -0.01796070    29.71302795
Ti      2.70851049    -0.65216170     4.37659325     0.01536800     0.01796070   -29.71302795
O       0.00005764     0.65198969     0.95054832     0.01418041     0.01712895   -23.20208345
O       2.70822128     0.65194156     4.88490923    -0.01418041    -0.01712895    23.20208345
O      -0.00002213    -0.65201934     3.86827732    -0.00175375    -0.00091634    -1.77836818
O       2.70830099     1.95595058     1.96718023     0.00175375     0.00091634     1.77836818
