# total energy = -4987.30955512 eV

CRYSTAL
PRIMVEC
        4.19521159     0.00000000     0.00000000
        0.62575262     4.14828084     0.00000000
       -2.41051991    -2.07417295     5.36923124
PRIMCOORD
6 1
Ti      0.46916191     3.11136919     1.34230752    -0.00126498     0.00126498     0.00000000
Ti      1.94128283    -1.03726092     4.02692314     0.00126498    -0.00126498     0.00000000
O       0.15648228     1.03706400     0.87460375    -0.00067877    -0.00175581    -1.11650196
O       2.25396227     1.03704410     4.49462691     0.00067877     0.00175581     1.11650196
O      -0.15645661    -1.03704192     3.55921938    -0.00175581    -0.00067877    -1.11650196
O       2.56690110     3.11115003     1.81001129     0.00175581     0.00067877     1.11650196
