# total energy = -19514.80078515 eV

CRYSTAL
PRIMVEC
        5.17600016     0.00000000     0.00000000
        0.00000000     5.50899976     0.00000000
        0.00000000     0.00000000     9.26300011
PRIMCOORD
23 1
Ti      1.98519898     3.21233001     3.42761800    -1.37550856    -1.41410418     2.99602509
Ti      3.28394198     2.25670401     5.82858102     0.55103518     0.66064649    -2.89234583
Ti      4.24681597     2.33292802     1.47554001     1.68560069    -1.11480606    -0.30225411
Ti      0.82389199     3.34306399     7.77474201     0.57395091     1.63049421     0.69359622
Ti      1.96213199     0.24582299     1.48473902    -0.00339077    -1.54673201    -1.00550328
Ti      3.31472100     5.17472500     7.93097201    -1.62852089    -1.29774809     2.03052613
Ti      0.67222302     0.61516099     5.89804500     0.18223626    -1.43500263    -3.59862968
Ti      4.57938800     5.03560398     3.19936099     1.35642377     1.07824393     3.70047934
O       1.55257700     1.81167901     4.62192703     1.75638293     1.01950552     1.58459512
O       3.46764502     3.64996399     4.53560102    -0.04634569    -1.18950358     1.05145560
O       5.15086398     2.46644299     9.00787000    -1.39994228    -0.65506128     2.71389450
O       3.38177802     0.57895198     0.41153898     1.25990118     1.15858939    -2.28062000
O       1.69078900     4.35868600     9.21022701     0.82017090     1.26604072    -0.14434641
O       4.42744200     0.76378401     4.59963803    -2.37419456     1.52905876     1.07997017
O       0.88636501     4.77189602     4.62777999     1.27193395    -1.52715254    -0.95596788
O       0.19451402     3.34764000     2.73402802    -0.26718220    -0.44745568    -2.13989730
O       5.07800902     2.22662102     6.57440100    -1.44832712    -0.55364279    -0.66812814
O       2.88466198     1.59312002     2.56351097    -0.33037120     1.37719084    -0.78498765
O       2.53107400     3.55634899     6.96647303     0.71024900    -0.35839006     0.62055346
O       0.29870902     0.82995901     2.03886502    -1.02142356    -0.01785786    -0.36717681
O       4.94321001     4.76479298     7.10715803     0.00258602     1.02901680     0.98004781
O       2.42174899     0.77579602     6.87058500    -0.18967961     0.72814260     0.12085861
O       2.95234301     4.45946702     2.43541902    -0.08558434     0.08052750    -2.43214519
