# total energy = -4980.00693017 eV

CRYSTAL
PRIMVEC
        2.70000326     0.00000000     0.00000000
        1.24122226     4.04431708     0.00000000
       -0.00000827    -0.00005544     4.27999528
PRIMCOORD
6 1
Ti      1.97060868     2.02213086     2.13999764     0.00000000     0.00000000     0.00000000
Ti      0.00000000     0.00000000     0.00000000     0.00000000     0.00000000     0.00000000
O       1.59189596     0.78816711     0.83410803    -7.91301463     3.49257652     4.32123335
O       2.34932144     3.25609460     3.44588721     7.91301463    -3.49257652    -4.32123335
O       0.37870932     1.23394131     2.97410662     7.91361087    -3.49427936     4.32304315
O       0.86250484     2.81032021     1.30588866    -7.91361087     3.49427936    -4.32304315
