# total energy = -19074.33321967 eV

CRYSTAL
PRIMVEC
        5.17600016     0.00000000     0.00000000
        0.00000000     5.50899976     0.00000000
        0.00000000     0.00000000     9.26300011
PRIMCOORD
22 1
Ti      1.86517999     3.28592100     3.20886898    -0.54587291     0.01165533     2.50034064
Ti      3.43006200     2.22919901     6.01281000     0.46283782     0.31838291    -1.33636093
Ti      4.52560798     2.19334302     1.31236699    -0.96121242    -0.71201843    -2.76187284
Ti      0.67346103     3.32839102     8.06874500     1.22399263     0.60879220     1.37819280
Ti      1.86477099     0.58670099     1.33677799    -0.37675700    -1.58501961    -3.06406268
Ti      3.26529902     4.97026298     8.01543601    -0.32486620     0.75662066     1.71411475
Ti      0.65740298     0.48858602     5.92826700    -0.16726266    -0.13288083    -1.52535585
Ti      4.46012600     4.87594502     3.43780800    -0.56078146     1.09576472     1.71699181
O       3.30078702     3.48552999     4.52513601    -0.06186282    -0.15858956     0.36880586
O       0.82137199     2.00703500     0.13819501     0.51062848    -0.66615508    -0.10928607
O       4.40672598     3.88239801     9.10695600    -0.47568717    -0.32410439    -0.24062835
O       3.38854101     0.85954398     0.23023798     0.62491405     0.47839120    -1.56181077
O       1.73949299     4.76081102     9.04502200    -1.53920562     0.01097579     0.15978435
O       4.43837401     1.01416502     4.64500302    -0.04841286    -1.33264929     0.08061440
O       0.91033299     4.65298899     4.37893301    -0.30844328     0.40040601     1.26709230
O       0.04700602     3.40427001     2.49072899     0.57043262    -0.15461412     0.20262074
O       0.04104399     2.34373498     6.55243998     0.55851066    -0.65794169     0.54931331
O       2.71365200     1.97713199     2.15030800     0.12168239     0.47759287     1.81969328
O       2.51959201     3.31283199     7.33811199     0.19972902    -0.49326812    -1.46905921
O       5.17440802     0.61665999     2.02349702     0.74049238    -1.02977862     1.33414104
O       2.53915998     0.60767800     6.51373601    -0.95002117     0.04838741     0.22675441
O       2.62355402     4.51923700     2.30871202     1.30716604     3.04005037    -1.25002377
