# total energy = -19517.14572122 eV

CRYSTAL
PRIMVEC
        7.60600008     0.00000000     0.00000000
        0.00000000     7.60600008     0.00000000
       -1.89786986    -1.89786986     4.85670466
PRIMCOORD
23 1
Ti      3.81054600     6.62754701     1.15259203     0.81713700     0.29689285     1.86079495
Ti      3.64454601     2.85283901     1.21590401     1.83661783    -0.95099202     1.02973954
Ti      0.16785301     6.80663202     1.11766701    -0.82650044    -0.28369871    -0.21845643
Ti     -0.02165102     3.01840502     1.12647501    -2.14174464    -1.24443727     2.45704299
Ti      5.56076721     2.86060622     3.79620779    -0.46990707     2.08360323    -2.64584971
Ti      5.79628924    -0.81384080     3.57468382    -1.87685690    -1.65073420    -0.14235458
Ti      1.93696622     2.72078520     3.77999279     1.46965957    -0.59989438    -0.71546680
Ti      1.86556222    -1.10487775     3.55588279     2.15580524     0.53351002     0.88462025
O       4.13538701     4.65204398     0.80478901    -1.53908735    -0.44215406     0.05338075
O       3.57309301     0.93843098     0.72455499    -0.03620217    -0.48292457     0.09313002
O      -0.18962199     4.86091099     0.84450101     0.41638723    -0.42776899     0.03530872
O       0.27210400     0.94648802     0.87560001    -0.31464992     1.74638005    -0.66182123
O       5.84494820     4.83943623     4.05420482     0.17715267    -0.53643542    -0.51663483
O       5.36907424     1.03743522     4.18678780     0.98528798    -1.87218006    -1.60878201
O       1.95900524     4.59318725     4.16523880    -0.98675351     1.14550016    -1.72846691
O       2.16225624     0.81319822     4.00089080    -1.35291627     0.10883355     0.13652306
O       3.77906324     2.77186721     3.29287280    -0.68932561     0.56711846    -1.44088480
O       3.78399025     6.26096921     3.16403079    -0.55330341     1.23847797     0.43748545
O      -0.03657880    -0.78859375     3.08100383     1.53326251    -0.13897461     1.09599201
O       5.63616899     6.80110598     1.68354699     0.69206409     0.51478775    -0.45740559
O       5.68194002     2.84350702     1.65134502     1.08264103    -0.57726584     1.21966520
O       1.97379399     6.29502398     1.50426899    -1.28407213     0.53565020     0.76213414
O       1.72796200     2.94149398     1.74204198     0.90530453     0.43670615     0.07030556
