# total energy = -4989.29441136 eV

CRYSTAL
PRIMVEC
        2.88589079     0.00000000     0.00000000
        0.67447030     4.47117291     0.00000000
       -0.00000424    -0.00005870     4.53460115
PRIMCOORD
6 1
Ti      1.78017816     2.23555702     2.26730052     0.00000000     0.00000000     0.00000000
Ti      0.00000000     0.00000000     0.00000000     0.00000000     0.00000000     0.00000000
O       1.57438876     0.87135425     0.88372694    -1.43232996     0.68719005     0.69920714
O       1.98596756     3.59975979     3.65087405     1.43232996    -0.68719005    -0.69920714
O       0.20578755     1.36417899     3.15102844     1.43258039    -0.68877205     0.70078477
O       0.46867809     3.10693515     1.38357256    -1.43258039     0.68877205    -0.70078477
