# total energy = -19959.19748779 eV

CRYSTAL
PRIMVEC
        5.93400000     0.00000000     0.00000000
        0.00000000     9.29699974     0.00000000
        0.00000000     0.00000000     4.64899994
PRIMCOORD
24 1
Ti      4.43243098     6.77368402     2.32202998     0.23992952     1.80076790     1.84922447
Ti      4.45341201     2.45687901     2.33679398     0.29941664    -3.11440155     0.45988311
Ti      1.47662101     6.94588200     2.15347301     0.42883446     0.71061692     1.48567086
Ti      1.49076402     2.55743401     2.30202100    -0.01964349    -2.54593661     2.17565622
Ti      2.98952602     4.64455798     0.00935802    -0.63950764    -0.80077063    -0.80684821
Ti      2.88452402     9.12419501     4.61616598     2.10069233     0.59592331    -2.30228361
Ti      5.90922398     4.67733601     0.04797801     0.23637574    -0.47451243    -0.97363779
Ti      0.04271101     9.22721301     0.21615599    -2.75041240     1.58359445    -2.39363880
O       4.34521299     5.65651797     0.84976198     1.05418483    -0.52420339    -1.14112980
O       4.51260498     1.02414298     1.00526500     0.45724747    -0.97054758    -1.09249711
O       1.43545102     5.52962302     0.89279600     0.25156505     0.98621100    -0.17616871
O       1.62347400     0.82899701     0.72159599    -1.01758670     1.15967723     1.60591960
O       4.60449598     8.32280798     3.74535301    -0.73422866     0.47232674     0.30206617
O       4.38135400     3.59708098     3.86867702     0.28530925     1.45238895     0.89821214
O       1.44487302     8.32898400     3.55309699     0.82769652    -0.09053526     1.36161380
O       1.42840498     3.71306298     3.85706698     0.37224214     0.47163614    -0.14385482
O       2.98999201     5.88351898     3.04009901    -0.77666885     0.57188297     0.94159772
O       2.85408998     1.43986399     3.16676399     0.70083027     0.86147183    -0.84516255
O       5.90891102     5.96347697     3.24885499     0.30174709     0.48693652    -1.05485846
O       0.09285902     1.58099101     3.20932799    -0.15521756     0.21794555    -0.86507369
O       3.05667300     7.86681102     1.38109298    -1.09110742    -0.56684567     0.33521001
O       3.04373001     3.54294901     1.54663497    -0.55734132    -0.91169166    -0.08602014
O       5.89599698     7.85303003     1.40150700     0.76169165    -0.94521192     0.47819374
O       0.01068599     3.47908297     1.50719100    -0.57604893    -0.42672229    -0.01207365
