# total energy = -19930.02097337 eV

CRYSTAL
PRIMVEC
        6.59390859     0.00000000     0.00000000
        0.00002320     3.77887616     0.00000000
        0.00000000     0.00000000     9.97603256
PRIMCOORD
24 1
Ti      2.38998855     2.23935863     3.70103706    -0.33266513     1.57735489    -1.07030102
Ti      4.20394340     1.53951784     6.27499591     0.33266513    -1.57735489     1.07030102
Ti      5.68682984     1.53951918     1.28693960    -0.33152022    -1.57758989     1.07262916
Ti      0.90710211     2.23935740     8.68909348     0.33152022     1.57758989    -1.07262916
Ti      2.38997705     0.34992060     1.28697958    -0.33266513     1.57735489     1.07030102
Ti      4.20395489     3.42895597     8.68905350     0.33266513    -1.57735489    -1.07030102
Ti      0.90709061     0.34991911     6.27495593     0.33152022     1.57758989     1.07262916
Ti      5.68684134     3.42895741     3.70107705    -0.33152022    -1.57758989    -1.07262916
O       2.08702194     1.33060660     5.09069322     3.10199521    -1.27637990     2.29941657
O       4.50691001     2.44826983     4.88533976    -3.10199521     1.27637990    -2.29941657
O       1.20998736     1.33062182     0.10270883    -3.10198158    -1.27678665     2.29938443
O       5.38394464     2.44825465     9.87332383     3.10198158     1.27678665    -2.29938443
O       4.50689851     0.55883174     0.10267647    -3.10199521     1.27637990     2.29941657
O       2.08703343     3.22004473     9.87335619     3.10199521    -1.27637990    -2.29941657
O       5.38393314     0.55881652     5.09072558     3.10198158     1.27678665     2.29938443
O       1.20999870     3.22005996     4.88530735    -3.10198158    -1.27678665    -2.29938443
O       0.23958605     2.29852672     2.69477537     0.96368479    -0.09934978     1.49378938
O       6.35434589     1.48034975     7.28125761    -0.96368479     0.09934978    -1.49378938
O       3.53654848     1.48031442     2.29327281     0.96463276     0.09954338    -1.49447149
O       3.05738346     2.29856206     7.68275996    -0.96463276    -0.09954338     1.49447149
O       0.23957455     0.40908859     2.29324097     0.96368479    -0.09934978    -1.49378938
O       6.35435739     3.36978788     7.68279180    -0.96368479     0.09934978     1.49378938
O       3.05737196     0.40912392     7.28128940    -0.96463276    -0.09954338    -1.49447149
O       3.53655998     3.36975255     2.69474352     0.96463276     0.09954338     1.49447149
