# total energy = -4980.66988223 eV

CRYSTAL
PRIMVEC
        4.38791575     0.00000000     0.00000000
        0.00000000     2.60783701     0.00000000
        0.00000000    -0.00010410     5.94548189
PRIMCOORD
6 1
Ti      2.19395788     1.30386629     2.97274067     0.00000000     0.00000000     0.00000000
Ti      0.00000000     0.00000000     0.00000000     0.00000000     0.00000000     0.00000000
O       2.19395788     0.50820868     1.15868676     0.00000000    -0.27827523     2.04683182
O       2.19395788     2.09952391     4.78679459     0.00000000     0.27827523    -2.04683182
O       0.00000000     0.79561644     4.13142874     0.00000000     0.27849506     2.05028173
O       0.00000000     1.81211615     1.81405260     0.00000000    -0.27849506    -2.05028173
