# total energy = -4987.29467811 eV

CRYSTAL
PRIMVEC
        3.19006510     0.00000000     0.00000000
        0.00000000     3.69443567     0.00000000
        0.00000000    -0.00005829     4.44643954
PRIMCOORD
6 1
Ti      1.59503260     1.84718854     2.22321977     0.00000000     0.00000000     0.00000000
Ti      0.00000000     0.00000000     0.00000000     0.00000000     0.00000000     0.00000000
O       1.59503260     0.71997968     0.86654556    -0.00000000    -0.77940142    -0.97601529
O       1.59503260     2.97439736     3.57989393    -0.00000000     0.77940142     0.97601529
O       0.00000000     1.12718531     3.08976632    -0.00000000     0.77999997    -0.97689461
O       0.00000000     2.56719178     1.35667322    -0.00000000    -0.77999997     0.97689461
