# total energy = -19074.13903235 eV

CRYSTAL
PRIMVEC
        5.17600016     0.00000000     0.00000000
        0.00000000     5.50899976     0.00000000
        0.00000000     0.00000000     9.26300011
PRIMCOORD
22 1
Ti      1.83063202     3.36593302     3.22053200    -0.47287901     0.60074645     0.85123138
Ti      3.71243300     2.38157603     5.93549398    -0.13374704    -0.48284127    -0.04548335
Ti      4.29912298     2.31468098     1.19697100     0.72771605    -0.75066264    -1.41475287
Ti      0.81475299     3.18713202     8.16753398     0.16559556     1.01712365     0.82991358
Ti      1.78721202     0.53444902     1.34179798    -1.04834559     0.15445060    -2.88143407
Ti      3.16034502     5.03952201     7.88298701     0.72631043     0.09108702     2.06368309
Ti      0.68821999     0.09419397     6.06590902    -0.48169044     2.23571284    -1.42471230
Ti      4.43603298     5.00909601     3.44178799    -0.46706266     0.83895770     0.34340052
O       3.48240398     3.49605999     4.38437502    -0.66146076    -0.43199280     1.24366466
O       0.92538300     2.00867598     0.28924701    -0.42199995    -0.28540181    -0.08148652
O       4.36722999     3.60598402     9.02492400    -0.88664114     0.27131191     0.60861505
O       3.31435502     0.82012202     0.16529201     1.35047218     1.19904752    -0.39439426
O       1.63662400     4.82832499     8.97352200    -1.50996085    -0.66454788     0.22755994
O       4.33686099     0.84550099     4.78544301    -0.09573455     0.26439718     0.81591675
O       0.94812598     4.85939002     4.33574601     0.59425518    -1.55267332     1.15025336
O       0.02306102     3.61158700     2.33708899     0.82969761    -1.17918599     0.43943435
O       0.27940802     2.16373899     6.69609499    -1.02100267    -1.43519700    -1.01595868
O       2.61787198     1.92165601     2.32339098     0.66468081     0.92858716     0.40403281
O       2.61639600     3.28170700     7.36376798     0.09806243    -0.59844325    -2.18577326
O       5.10718500     0.72828400     2.09657100     0.57929084    -0.04154519     0.43364602
O       2.45687297     0.60599098     6.50177999     0.08588413     0.24961616     0.08006393
O       2.59163299     4.76203501     2.37341997     1.37855969    -0.42854726    -0.04741964
