# total energy = -4989.44886039 eV

CRYSTAL
PRIMVEC
        4.03133710     0.00000000     0.00000000
       -0.00000897     4.03133710     0.00000000
       -2.01570017    -2.01570466     5.14488273
PRIMCOORD
6 1
Ti     -0.00017753     3.02365552     1.28622054     0.00036895    -0.00036895     0.00000000
Ti      2.01580538    -1.00802318     3.85866185    -0.00036895     0.00036895     0.00000000
O       0.00004027     1.00782743     0.83805930    -0.00028462    -0.00144188    -0.72717689
O       2.01558747     1.00780480     4.30682315     0.00028462     0.00144188     0.72717689
O      -0.00002277    -1.00780993     3.41050061    -0.00144188    -0.00028462    -0.72717689
O       2.01565045     3.02344210     1.73438184     0.00144188     0.00028462     0.72717689
