# total energy = -19516.48089375 eV

CRYSTAL
PRIMVEC
        5.17600016     0.00000000     0.00000000
        0.00000000     5.50899976     0.00000000
        0.00000000     0.00000000     9.26300011
PRIMCOORD
23 1
Ti      1.81302301     3.22916298     3.45618299    -1.04410044    -1.14515049     2.89146112
Ti      3.34241300     2.27293900     5.81130999    -0.14249599     0.72839817    -3.08780245
Ti      4.36587900     2.05754301     1.57397201    -0.13165724    -0.74607888    -1.27432816
Ti      0.92371498     3.22460402     7.77787500     1.05113498     1.23800411     1.74800627
Ti      2.01304498     0.24433098     1.33960702    -0.12359915    -0.32375574    -1.48281076
Ti      3.36650602     5.34984102     7.76968498    -0.80419277    -0.92748364     2.65244485
Ti      0.68093301     0.57521302     6.05202801    -0.72786415    -1.48233588    -4.67977690
Ti      4.42730902     4.94539001     3.28844602     0.94774292    -0.01213613     3.59730042
O       1.61040401     2.02347802     4.90680801    -0.01413516    -0.32538042    -0.42716735
O       3.38504902     3.61411800     4.41851399     1.58471725    -0.11257708     1.34500807
O       0.18745802     2.64210401     0.05548201     0.51477155     0.35998929     0.11158849
O       3.50151099     0.91025102     0.26000098    -0.14289194    -0.11318643    -1.49209554
O       1.92346998     4.82725298     8.92882298    -0.70643631    -0.81445276     0.04590655
O       4.30516602     0.83772098     4.78875402    -0.72290475    -0.05631361    -0.42808369
O       0.89529102     4.71478599     4.41675903    -0.21527803     0.60226108     0.68623386
O       0.13276401     3.31076899     2.64237299    -1.39000265    -0.23493850    -1.22668586
O       5.01693699     2.03650298     6.83031101    -1.04673171    -0.05082096     0.57754095
O       2.48353102     1.80156998     2.28064197     0.92710055     0.67181794     0.16386341
O       2.78693802     3.59099798     7.02503601    -0.89307481     0.28728849     0.88471435
O       0.16104203     0.47104602     1.93516199     0.57069178     0.31508752    -0.05672576
O       5.08728502     4.70679102     7.20806498    -0.01638025     0.58685606     0.07850635
O       2.29666202     1.00910699     6.83903799     1.04109585    -0.24541780     1.59666131
O       2.71921498     4.40801998     2.35812897     1.48449047     1.80032592    -2.22375952
