# total energy = -4990.24865203 eV

CRYSTAL
PRIMVEC
        3.09957746     0.00000000     0.00000000
        0.00000000     4.39404271     0.00000000
        0.00000000    -0.00006010     4.63690003
PRIMCOORD
6 1
Ti      1.54978873     2.19699114     2.31845002     0.00000000     0.00000000     0.00000000
Ti      0.00000000     0.00000000     0.00000000     0.00000000     0.00000000     0.00000000
O       1.54978873     0.85632243     0.90366351     0.00000000     0.07418535    -0.02616433
O       1.54978873     3.53765981     3.73323647     0.00000000    -0.07418535     0.02616433
O       0.00000000     1.34064437     3.22211447     0.00000000    -0.07475922    -0.02553492
O       0.00000000     3.05333792     1.41478551     0.00000000     0.07475922     0.02553492
