# total energy = -19961.05503918 eV

CRYSTAL
PRIMVEC
        5.93400000     0.00000000     0.00000000
        0.00000000     9.29699974     0.00000000
        0.00000000     0.00000000     4.64899994
PRIMCOORD
24 1
Ti      4.45966800     7.00460099     2.25049998     0.34256594     0.39915389    -0.07488289
Ti      4.44474599     2.36081503     2.34081599     0.07322479     0.37607386    -0.70253337
Ti      1.48405601     6.88473901     2.35243000    -0.43306161     0.79782312     0.21275398
Ti      1.49497902     2.27774700     2.42502000     0.04686866     0.35768969    -0.93783645
Ti      2.94872402     4.66354602     4.62919099     1.27612716     0.70361272     0.39459660
Ti      2.92964199     0.05125801     0.04300999     0.27693028    -1.59123423     0.03367889
Ti      0.04325802     4.58622402     4.62061001    -1.37626858     0.80909407     0.44622386
Ti      5.91325398     0.04632301     4.62496900    -0.48758290    -1.55245503     0.08059254
O       4.48262699     5.60063601     0.86450200    -0.47840560    -0.99611053    -0.39517870
O       4.50697200     0.93348698     1.07318702    -0.37652997    -0.76217605    -1.41768470
O       1.45364901     5.59319498     0.82129198     0.44667920    -0.25469872     0.23585021
O       1.45277401     0.78795498     0.93285599     0.29434823     1.09555980     0.80852200
O       4.47390001     8.41579902     3.68428802     0.08013669     0.68152308     0.75113238
O       4.40771099     3.78660602     3.63295502    -0.00945806     0.04637989     0.90346387
O       1.49678600     8.37433899     3.69289498    -0.03584222     0.44450071     0.39484549
O       1.49387701     3.78261301     3.72920702     0.29958994    -0.74839184    -0.49516663
O       3.01049398     6.11300299     3.26570601    -0.62836808    -0.41761081    -0.34097443
O       2.91765401     1.44771698     3.37659002     0.28635955     0.62214086    -0.83204374
O       0.00450499     5.94057498     3.13592798     0.52481480     0.76721387    -0.02100258
O       5.93026602     1.47892098     3.26861098    -0.01334069    -0.07218375     0.38292302
O       3.02724302     7.87085197     1.36065103    -0.50452365    -0.16364281     0.20296604
O       2.90278000     3.13355002     1.37250899     0.17997523     0.34348331     0.19393350
O       5.93349898     7.89699100     1.40394000     0.32202488    -0.38729184     0.14207818
O       0.01705300     3.26899500     1.42613301    -0.10626399    -0.49845301     0.03374343
