# total energy = -19953.52998433 eV

CRYSTAL
PRIMVEC
        5.33833307     0.00000000     0.00000000
        1.66699996     5.43154645     0.00000000
        0.00000000     0.00000000     9.66621822
PRIMCOORD
24 1
Ti      2.92275158     3.21872942     3.58609802     1.25367397    -2.39172255     1.04539962
Ti      4.08258136     2.21281715     6.08012025    -1.25367397     2.39172255    -1.04539962
Ti      5.28310530     2.21281902     1.24697250    -2.58615536    -0.39481566     0.88913588
Ti      1.72222773     3.21872776     8.41924588     2.58615536     0.39481566    -0.88913588
Ti      2.08925173     0.50295629     1.24701125     1.25367397    -2.39172255    -1.04539962
Ti      4.91608124     4.92859044     8.41920712    -1.25367397     2.39172255     1.04539962
Ti      0.88872776     0.50295426     6.08008150     2.58615536     0.39481566     0.88913588
Ti      6.11660520     4.92859247     3.58613677    -2.58615536    -0.39481566    -0.88913588
O       2.27659512     1.91253988     4.93259717     0.73194655     1.32054401    -0.85260049
O       4.72873783     3.51900675     4.73362110    -0.73194655    -1.32054401     0.85260049
O       1.56656737     1.91256179     0.09951915     0.27128388    -0.55650700     0.60523559
O       5.43876564     3.51898488     9.56669885    -0.27128388     0.55650700    -0.60523559
O       3.89523795     0.80323345     0.09948779    -0.73194655    -1.32054401    -0.85260049
O       3.11009500     4.62831317     9.56673021     0.73194655     1.32054401     0.85260049
O       4.60526576     0.80321159     4.93262853    -0.27128388     0.55650700     0.60523559
O       2.40006714     4.62833510     4.73358974     0.27128388    -0.55650700    -0.60523559
O       1.20791786     3.30377449     2.61108669     0.13873061     0.52086481     0.38608882
O       5.79741508     2.12777213     7.05513158    -0.13873061    -0.52086481    -0.38608882
O       3.51615164     2.12772149     2.22205318     1.26664184     0.16647308    -0.55674303
O       3.48918130     3.30382514     7.44416493    -1.26664184    -0.16647308     0.55674303
O       0.37441793     0.58800121     2.22202231     0.13873061     0.52086481    -0.38608882
O       6.63091496     4.84354543     7.44419580    -0.13873061    -0.52086481     0.38608882
O       2.65568142     0.58805184     7.05516240    -1.26664184    -0.16647308    -0.55674303
O       4.34965152     4.84349478     2.61105582     1.26664184     0.16647308     0.55674303
