# total energy = -19959.54250067 eV

CRYSTAL
PRIMVEC
        5.02675277     0.00000000     0.00000000
        0.53369180     5.32329906     0.00000000
        0.00000000     0.00000000     9.00807523
PRIMCOORD
24 1
Ti      2.13822143     3.15458213     3.34193174     0.72283893    -0.30111897     0.20353760
Ti      3.42222330     2.16871698     5.66614380    -0.72283893     0.30111897    -0.20353760
Ti      4.55267641     2.16871879     1.16207005    -0.97478090    -0.55624989     0.75899456
Ti      1.00776833     3.15458057     7.84600565     0.97478090     0.55624989    -0.75899456
Ti      1.87137563     0.49293264     1.16210618     0.72298651    -0.30082407    -0.20261612
Ti      3.68906910     4.83036667     7.84596951    -0.72298651     0.30082407     0.20261612
Ti      0.74092246     0.49293068     5.66610771     0.97469194     0.55364151     0.75835102
Ti      4.81952222     4.83036858     3.34196788    -0.97469194    -0.55364151    -0.75835102
O       1.77892101     1.87442411     4.59675196    -0.44730784    -0.20278992    -0.32688144
O       3.78152372     3.44887505     4.41132358     0.44730784     0.20278992     0.32688144
O       1.11033092     1.87444564     0.09274319     0.63029152    -0.68493288     0.13826112
O       4.45011386     3.44885357     8.91533215    -0.63029152     0.68493288    -0.13826112
O       3.51467792     0.78722536     0.09271398     0.44767988     0.20288660    -0.32691306
O       2.04576681     4.53607380     8.91536135    -0.44767988    -0.20288660     0.32691306
O       4.18326805     0.78720388     4.59678121    -0.62940294     0.68438498     0.13846835
O       1.37717662     4.53609528     4.41129438     0.62940294    -0.68438498    -0.13846835
O       0.50725514     3.23793237     2.43330591    -0.40935757    -0.13102449    -0.47747100
O       5.05318954     2.08536679     6.57476963     0.40935757     0.13102449     0.47747100
O       2.90508523     2.08531721     2.07076050     0.22894217    -0.43016552    -0.35550374
O       2.65535950     3.23798190     6.93731494    -0.22894217     0.43016552     0.35550374
O       0.24040934     0.57628268     2.07073170    -0.40906832    -0.13067354     0.47859920
O       5.32003534     4.74701643     6.93734368     0.40906832     0.13067354    -0.47859920
O       2.38851369     0.57633226     6.57479837    -0.22864392     0.43033752    -0.35634835
O       3.17193104     4.74696690     2.43327717     0.22864392    -0.43033752     0.35634835
