# total energy = -19073.68162361 eV

CRYSTAL
PRIMVEC
        5.17600016     0.00000000     0.00000000
        0.00000000     5.50899976     0.00000000
        0.00000000     0.00000000     9.26300011
PRIMCOORD
22 1
Ti      2.08314900     3.46265101     3.34353999     0.06932699    -0.43530952    -1.19898478
Ti      3.53759199     2.10986801     5.84980002     0.00257085     0.16768458    -0.66420618
Ti      4.54667998     2.31934499     1.24502199     0.20284186    -0.08769882    -1.17772664
Ti      0.52053298     3.12448299     7.98962898    -1.09559966    -1.33127426     1.56119370
Ti      1.90164300     0.37733402     1.31234799     0.03889849     0.45678981    -1.47680389
Ti      3.05093699     5.20362199     7.99894600     0.08241314     0.27263011     1.29080919
Ti      0.67792998     0.11252600     6.07611299    -0.36504073     1.12462254    -0.01210373
Ti      4.67820402     5.07903398     3.28376302    -0.66072799    -1.10891489     0.84494246
O       3.63406401     3.41531500     4.33943797     0.41479957    -0.30120973     1.92703662
O       0.88864000     1.92409901     0.12675801    -0.56824229    -0.01081406     0.86960012
O       4.25194799     3.72850898     8.91808603    -1.20063646    -0.27650965     0.47029094
O       3.41379298     0.75135401     0.27735100     0.72433711     1.08951077    -0.78432097
O       1.55548102     4.64802203     9.16511898     0.74281846     0.37162148    -0.45127197
O       4.38052203     0.71014502     4.83298800    -0.69257832     0.69424156     0.56730744
O       1.04718002     4.84270200     4.30886502     1.49499291    -0.90172992     1.43644399
O       0.48751698     3.68363898     2.21226698    -1.35881156    -0.89979182     0.24720189
O       4.61154298     1.45625801     7.25063899     1.50667601    -0.31700608    -0.86269928
O       2.64957202     1.90118400     2.38071998     0.77787367     0.96277848    -0.15225821
O       1.49633498     4.05485402     6.81535598     2.23726733     1.14969234    -1.87183579
O       0.25962500     0.77079598     2.19175501    -1.00503200     1.60391465    -0.04608601
O       2.18507600     1.27439402     6.94563900    -0.90535004    -1.39213949    -0.71264193
O       3.04053902     4.78982401     2.34598801    -0.44279812    -0.83108781     0.19611302
