# total energy = -19518.49358004 eV

CRYSTAL
PRIMVEC
        7.60600008     0.00000000     0.00000000
        0.00000000     7.60600008     0.00000000
       -1.89786986    -1.89786986     4.85670466
PRIMCOORD
23 1
Ti      3.87944901     6.68826899     1.17254598     0.27357628     0.06252848     0.11960416
Ti      3.80409999     2.85486401     1.13056597    -0.66641836     0.21533485     1.98107506
Ti      0.05431899     6.62628598     1.16145199    -0.60841759     0.38092450     0.30823142
Ti     -0.01014798     2.73651701     1.19098299     0.66519837     0.05898833    -0.21641986
Ti      5.53520224     2.83318923     3.73933780    -0.71514207    -0.02508035    -0.58453152
Ti      5.70478423    -1.01604980     3.55971980     0.27324126     0.15785628     0.27877762
Ti      1.83043623     2.87844822     3.68724680     1.51340768     0.51757894    -0.85073001
Ti      1.91406020    -0.87726676     3.62813379    -0.10079808    -0.82196682    -0.83138323
O       3.98131600     4.73431798     0.70735001    -1.06707429     0.11236136     0.81422934
O       4.01415399     1.01077702     0.87162298    -0.07742983     0.38640584    -0.64821160
O       0.15052198     4.79466498     0.75270802     0.38627240    -0.73632977     0.20833374
O      -0.20074598     0.92143100     0.90916001     0.48008016    -0.47813075    -0.17377681
O       5.51710824     4.77337523     4.03166981     0.78834320    -0.60517389     0.73445055
O       5.66706220     0.83501524     4.14952483     0.31994742     1.62471180    -1.00304145
O       2.05431821     4.87053921     4.04095179    -1.01855909    -0.90187005     0.33347709
O       1.64065824     0.98269723     3.94637882     0.12725346     0.15920508     1.09709655
O       3.72266421     2.91273822     3.27186484     0.69692271    -0.59101353    -0.94096497
O       3.88380324    -0.89244478     3.22012982    -1.70142249     0.33427696    -0.86990685
O      -0.03265976    -1.07947476     3.35956580     1.06941065     0.19995580    -0.98065279
O       5.73702298     6.47934102     1.50167301     0.12162042     0.39826994     1.35956257
O       5.90372201     3.06025601     1.84692999    -1.18777245    -0.50323244    -0.02588356
O       1.91920597     6.78274999     1.61292898     0.26083157    -0.23998120     0.39268602
O       1.86006502     2.74405800     1.70107498     0.16692893     0.29438037    -0.50202196
