# total energy = -19933.13531412 eV

CRYSTAL
PRIMVEC
        7.03125967     0.00000000     0.00000000
        0.00002474     4.02951591     0.00000000
        0.00000000     0.00000000    10.63770819
PRIMCOORD
24 1
Ti      2.54850820     2.38788752     3.94651401     0.09112764     0.65270332     0.82807113
Ti      4.48277638     1.64162872     6.69119462    -0.09112764    -0.65270332    -0.82807113
Ti      6.06401753     1.64163014     1.37229784     0.09002798    -0.65278894    -0.82797163
Ti      0.96726704     2.38788621     9.26541091    -0.09002798     0.65278894     0.82797163
Ti      2.54849594     0.37312962     1.37234047     0.09112764     0.65270332    -0.82807113
Ti      4.48278864     3.65638673     9.26536827    -0.09112764    -0.65270332     0.82807113
Ti      0.96725478     0.37312803     6.69115199    -0.09002798     0.65278894    -0.82797163
Ti      6.06402979     3.65638826     3.94655665     0.09002798    -0.65278894     0.82797163
O       2.22544686     1.41886112     5.42834124     2.11211755     0.02124221     0.12707682
O       4.80583771     2.61065507     5.20936739    -2.11211755    -0.02124221    -0.12707682
O       1.29024162     1.41887735     0.10952115    -2.11059134     0.02031481     0.12759361
O       5.74104301     2.61063889    10.52818715     2.11059134    -0.02031481    -0.12759361
O       4.80582545     0.59589711     0.10948665    -2.11211755    -0.02124221     0.12707682
O       2.22545912     3.43361913    10.52822166     2.11211755     0.02124221    -0.12707682
O       5.74103075     0.59588088     5.42837575     2.11059134    -0.02031481     0.12759361
O       1.29025372     3.43363536     5.20933283    -2.11059134     0.02031481    -0.12759361
O       0.25547696     2.45098003     2.87351047    -0.83077542     0.37501610     0.96360868
O       6.77580761     1.57853621     7.76419817     0.83077542    -0.37501610    -0.96360868
O       3.77111547     1.57849854     2.44537764    -0.83000075    -0.37444815    -0.96455562
O       3.26016910     2.45101770     8.19233078     0.83000075     0.37444815     0.96455562
O       0.25546470     0.43622202     2.44534368    -0.83077542     0.37501610    -0.96360868
O       6.77581987     3.59329422     8.19236473     0.83077542    -0.37501610     0.96360868
O       3.26015684     0.43625970     7.76423206     0.83000075     0.37444815    -0.96455562
O       3.77112774     3.59325655     2.87347651    -0.83000075    -0.37444815     0.96455562
