# total energy = -19951.68836439 eV

CRYSTAL
PRIMVEC
        5.10281838     0.00000000     0.00000000
        1.59345584     5.19191940     0.00000000
        0.00000000     0.00000000     9.23976741
PRIMCOORD
24 1
Ti      2.79380666     3.07672665     3.42788781     2.02254105    -2.31456166     1.03474882
Ti      3.90246747     2.11519286     5.81187965    -2.02254105     2.31456166    -1.03474882
Ti      5.05002712     2.11519465     1.19195901    -3.91515445    -0.05285727     1.44591516
Ti      1.64624709     3.07672506     8.04780856     3.91515445     0.05285727    -1.44591516
Ti      1.99707886     0.48076704     1.19199605     2.02254105    -2.31456166    -1.03474882
Ti      4.69919530     4.71115263     8.04777152    -2.02254105     2.31456166     1.03474882
Ti      0.84951918     0.48076510     5.81184261     3.91515445     0.05285727     1.44591516
Ti      5.84675497     4.71115457     3.42792485    -3.91515445    -0.05285727    -1.44591516
O       2.17615710     1.82816312     4.71498259    -0.13411959     0.64276086    -0.90323530
O       4.52011704     3.36375645     4.52478488     0.13411959    -0.64276086     0.90323530
O       1.49745410     1.82818406     0.09512860     0.80859939    -0.72525808     0.10785679
O       5.19882010     3.36373555     9.14463860    -0.80859939     0.72525808    -0.10785679
O       3.72338922     0.76779668     0.09509862     0.13411959    -0.64276086    -0.90323530
O       2.97288493     4.42412288     9.14466858    -0.13411959     0.64276086     0.90323530
O       4.40209227     0.76777578     4.71501257    -0.80859939     0.72525808     0.10785679
O       2.29418183     4.42414385     4.52475490     0.80859939    -0.72525808    -0.10785679
O       1.15462737     3.15801973     2.49589169    -0.11444164    -0.51267096    -0.71438076
O       5.54164677     2.03389983     6.74387577     0.11444164     0.51267096     0.71438076
O       3.36102731     2.03385142     2.12402142     1.44005407    -0.92511720    -1.49072539
O       3.33524683     3.15806815     7.11574589    -1.44005407     0.92511720     1.49072539
O       0.35789949     0.56205998     2.12399191    -0.11444164    -0.51267096     0.71438076
O       6.33837460     4.62985960     7.11577540     0.11444164     0.51267096    -0.71438076
O       2.53851901     0.56210838     6.74390523    -1.44005407     0.92511720    -1.49072539
O       4.15775513     4.62981119     2.49586218     1.44005407    -0.92511720     1.49072539
