# total energy = -19915.20469745 eV

CRYSTAL
PRIMVEC
        7.68081694     0.00000000     0.00000000
        0.00002515     3.50344787     0.00000000
        0.00000000     0.00000000    11.68960306
PRIMCOORD
24 1
Ti      2.78394150     2.07613998     4.33675936    -0.18637548     0.11142085     1.97047183
Ti      4.89690026     1.42730795     7.35284387     0.18637548    -0.11142085    -1.97047183
Ti      6.62421850     1.42730914     1.50799550    -0.18579390    -0.11168156    -1.96874764
Ti      1.05662325     2.07613890    10.18160785     0.18579390     0.11168156     1.96874764
Ti      2.78392909     0.32441610     1.50804239    -0.18637548     0.11142085    -1.97047183
Ti      4.89691267     3.17903188    10.18156095     0.18637548    -0.11142085     1.97047183
Ti      1.05661084     0.32441479     7.35279697     0.18579390     0.11168156    -1.96874764
Ti      6.62423091     3.17903319     4.33680626    -0.18579390    -0.11168156     1.96874764
O       2.43103582     1.23362354     5.96511501     3.37686758     0.19062372    -0.54508693
O       5.24980593     2.26982433     5.72448822    -3.37686758    -0.19062372     0.54508693
O       1.40943509     1.23363767     0.12035100    -3.37500970     0.19039566    -0.54553481
O       6.27140673     2.26981025    11.56925189     3.37500970    -0.19039566     0.54553481
O       5.24979358     0.51810039     0.12031309    -3.37686758    -0.19062372    -0.54508693
O       2.43104818     2.98534753    11.56928981     3.37686758     0.19062372     0.54508693
O       6.27139437     0.51808626     5.96515293     3.37500970    -0.19039566    -0.54553481
O       1.40944733     2.98536167     5.72445030    -3.37500970     0.19039566     0.54553481
O       0.27907703     2.13099558     3.15765344    -0.83747263     0.14660718     0.33239260
O       7.40176473     1.37245229     8.53194979     0.83747263    -0.14660718    -0.33239260
O       4.11949527     1.37241965     2.68718533    -0.83670567    -0.14658533    -0.33228307
O       3.56134649     2.13102828     9.00241773     0.83670567     0.14658533     0.33228307
O       0.27906467     0.37927164     2.68714803    -0.83747263     0.14660718    -0.33239260
O       7.40177708     3.12417628     9.00245503     0.83747263    -0.14660718     0.33239260
O       3.56133414     0.37930429     8.53198703     0.83670567     0.14658533    -0.33228307
O       4.11950762     3.12414364     3.15761614    -0.83670567    -0.14658533     0.33228307
