# total energy = -19961.44376065 eV

CRYSTAL
PRIMVEC
        7.60600008     0.00000000     0.00000000
        0.00000000     7.60600008     0.00000000
       -1.89786986    -1.89786986     4.85670466
PRIMCOORD
24 1
Ti      3.86867401     6.71916500     1.21015799    -0.98253304     1.12651796     0.45004144
Ti      3.86452902     2.95653499     1.16007898    -0.88370417    -1.10542950     0.76510968
Ti      0.00182598     6.53737902     1.20554002     0.32580029     1.25719972     0.24032136
Ti      0.01311502     2.82922198     1.28702501     0.68964134    -0.98197100    -1.59274398
Ti      5.71378024     2.71752420     3.61979480    -0.93676636    -0.19250885     0.36774245
Ti      5.66832921    -1.04902177     3.65939181    -0.10677873     0.11917865    -0.20538700
Ti      1.90618022     2.92356524     3.65058382     0.93482877     0.61457513    -0.82899441
Ti      1.86608520    -0.84351378     3.65083883     0.07152092    -0.32202025    -0.42858480
O       3.83749600     4.81777299     0.76793102    -0.30931951     0.21965328     0.22797003
O       3.73571198     0.96644599     0.82753500     0.39801309     1.21779009    -0.60153115
O       0.00404699     4.68148100     0.76146199     0.09971822    -0.66592574     0.71851510
O      -0.03285000     0.81363600     0.64800998    -0.09513188     0.81889975     1.95098748
O       5.66308924     4.63934124     4.07268480     0.17653304    -0.36499754    -0.77726740
O       5.59844622     0.83767621     4.09508980     0.57243139     1.49152989     0.22644151
O       1.86248124     4.91786924     3.97914780     0.13472277    -1.66113406     0.33129319
O       1.91256422     1.11429621     4.04982482    -0.02304198    -1.71934103     0.65592131
O       3.81451721     2.81203224     3.25488079    -0.26545904     0.50863099    -0.57883755
O       3.79923823    -0.76333575     3.20260681    -0.67817910    -0.76701512    -0.11096783
O       0.03039922     2.70068520     3.23896583    -0.49308815     0.52830482    -0.29140226
O      -0.06529476    -0.93075976     3.16288179     0.03780140    -0.00024785     0.51713723
O       5.63444102     6.60607300     1.62242199     0.96586303    -0.15383790    -0.60361091
O       5.69713900     2.73183802     1.63448702     0.28514162     0.33856170     0.00831855
O       1.83539599     6.83454099     1.72258699     0.29837175    -0.83200286    -0.85057652
O       1.91858700     2.79989398     1.57851399    -0.21638541     0.52558947     0.41010396
