# total energy = -19958.75572329 eV

CRYSTAL
PRIMVEC
        7.60600008     0.00000000     0.00000000
        0.00000000     7.60600008     0.00000000
       -1.89786986    -1.89786986     4.85670466
PRIMCOORD
24 1
Ti      3.70251098     6.71125301     1.14022600    -0.18878872     0.04946033     4.03837178
Ti      3.94764001     2.96729602     1.18521998    -0.32939983    -0.51117355     0.57903887
Ti     -0.08731102     6.59690701     1.26043703    -0.37489218    -0.00883868     0.68463129
Ti      0.07614898     2.68830399     1.25098698    -0.22359221     0.24335938    -0.49582740
Ti      5.71540021     2.70996723     3.67515881     0.52601036     0.48450709     0.15016996
Ti      5.63460220    -1.09748779     3.64843880     0.74403716     0.01467561    -0.53159532
Ti      1.94180020     2.91842423     3.59283280    -0.45523070    -1.67373556    -0.80555520
Ti      2.02199522    -0.86156380     3.68545480    -1.60288107     1.61861777    -1.16297107
O       4.15459901     4.80386197     0.85616402    -1.37904049    -0.04400702    -2.21792800
O       3.79910101     1.14338799     0.77143798     0.28620425    -0.19292023    -0.54912202
O       0.10624101     4.82274498     0.75851002    -0.83229880    -2.34901626    -0.40909943
O       7.15014801     0.89258899     1.00635500     1.83195848    -0.22323791    -1.13850573
O       5.54634523     4.66519324     4.00422281    -0.26333094     0.88646399     0.39154393
O       5.81526422     0.75787221     4.12658383     0.09135416     1.92716646     0.38218794
O       1.90621621     4.99175620     4.30300782     0.27673899    -2.61862737    -4.65658683
O       1.63002923     1.10931723     3.61621180     0.98878314     0.54444852     1.85117619
O       3.84654424     2.71271525     3.03284082    -0.78048282     0.51145740     2.07314270
O       3.77123824    -0.65082277     3.23217379    -1.26892370    -0.33160430     0.77546968
O      -0.04239377     3.06333222     3.14829581     1.88880996     0.04088158     1.07438239
O      -0.03844478    -1.08284175     3.15911881    -0.97936415    -0.02913241     0.91490349
O       5.48858998     6.60072201     1.76188100     1.69391924     0.01180625    -0.53677018
O       5.77746900     2.81312902     1.72321698    -0.54716387     0.44364402    -1.18342754
O       1.77811398     6.51817602     1.64702202     2.25194036     0.65326999    -0.30427372
O       2.01195201     2.89033899     1.48591702    -1.35436612     0.55253465     1.07664445
