# total energy = -19903.67854055 eV

CRYSTAL
PRIMVEC
        6.69547534     0.00000000     0.00000000
        1.06295882     7.04628575     0.00000000
        0.00000000     0.00000000    12.01746028
PRIMCOORD
24 1
Ti      3.05669616     4.17562234     4.45839209    -0.20446088    -1.46760577     0.63282920
Ti      4.70173791     2.87066321     7.55906846     0.20446088     1.46760577    -0.63282920
Ti      6.20746573     2.87066559     1.55029013     0.25199083     0.16892231    -0.47010042
Ti      1.55096837     4.17562023    10.46717056    -0.25199083    -0.16892231     0.47010042
Ti      2.52521690     0.65247959     1.55033832    -0.20446088    -1.46760577    -0.63282920
Ti      5.23321719     6.39380616    10.46712236     0.20446088     1.46760577     0.63282920
Ti      1.01948907     0.65247701     7.55902027    -0.25199083    -0.16892231    -0.47010042
Ti      6.73894502     6.39380875     4.45844028     0.25199083     0.16892231     0.47010042
O       2.49344606     2.48111691     6.13241805     1.65230540     1.73884363    -0.38262014
O       5.26498801     4.56516864     5.88504243    -1.65230540    -1.73884363     0.38262014
O       1.60290675     2.48114539     0.12372648    -1.05525261     0.68161898     0.49405334
O       6.15552740     4.56514022    11.89373373     1.05525261    -0.68161898    -0.49405334
O       4.73350873     1.04202569     0.12368750    -1.65230540    -1.73884363    -0.38262014
O       3.02492534     6.00425987    11.89377271     1.65230540     1.73884363     0.38262014
O       5.62404812     1.04199727     6.13245710     1.05525261    -0.68161898     0.49405334
O       2.13438589     6.00428836     5.88500345    -1.05525261     0.68161898    -0.49405334
O       0.88981390     4.28595042     3.24621589     0.49414461     0.81264476     1.14347593
O       6.86862017     2.76033507     8.77124466    -0.49414461    -0.81264476    -1.14347593
O       4.00741009     2.76026953     2.76255261     0.52705140     1.19005328     0.43252990
O       3.75102397     4.28601595     9.25490773    -0.52705140    -1.19005328    -0.43252990
O       0.35833462     0.76280746     2.76251418     0.49414461     0.81264476    -1.14347593
O       7.40009945     6.28347802     9.25494610    -0.49414461    -0.81264476     1.14347593
O       3.21954469     0.76287300     8.77128296    -0.52705140    -1.19005328     0.43252990
O       4.53888937     6.28341249     3.24617752     0.52705140     1.19005328    -0.43252990
