# total energy = -19949.49694821 eV

CRYSTAL
PRIMVEC
        5.02694977     0.00000000     0.00000000
        0.00002502     4.84065223     0.00000000
        0.00000000     0.00000000     8.59017483
PRIMCOORD
24 1
Ti      1.82204236     2.86856598     3.18689367    -0.46623939     1.45465126    -2.14314898
Ti      3.20493242     1.97208615     5.40328146     0.46623939    -1.45465126     2.14314898
Ti      4.33542964     1.97208781     1.10815958    -0.46308799    -1.45396709     2.13870765
Ti      0.69154520     2.86856456     7.48201570     0.46308799     1.45396709    -2.13870765
Ti      1.82202990     0.44823997     1.10819404    -0.46684412     1.45306335     2.13729766
Ti      3.20494493     4.39241231     7.48198124     0.46684412    -1.45306335    -2.13729766
Ti      0.69153269     0.44823820     5.40324705     0.46263985     1.45379868     2.14448235
Ti      4.33544210     4.39241412     3.18692813    -0.46263985    -1.45379868    -2.14448235
O       1.59107017     1.70447588     4.38350058    -0.81171274    -1.82711143     0.87249930
O       3.43590467     3.13617625     4.20667455     0.81171274     1.82711143    -0.87249930
O       0.92245180     1.70449546     0.08844067     0.81061051    -1.82688260     0.87245867
O       4.10452309     3.13615672     8.50173426    -0.81061051     1.82688260    -0.87245867
O       3.43589216     0.71585009     0.08841282     0.81107228     1.82631670     0.87181564
O       1.59108267     4.12480204     8.50176212    -0.81107228    -1.82631670    -0.87181564
O       4.10451058     0.71583056     4.38352848    -0.81136795     1.82791053     0.87310042
O       0.92246416     4.12482162     4.20664670     0.81136795    -1.82791053    -0.87310042
O       0.18265601     2.94435910     2.32042059     0.68115336    -0.12896015     0.20594878
O       4.84431882     1.89629308     6.26975454    -0.68115336     0.12896015    -0.20594878
O       2.69613535     1.89624802     1.97469429     0.68141921     0.12965692    -0.20504144
O       2.33083944     2.94440416     6.61548074    -0.68141921    -0.12965692     0.20504144
O       0.18264350     0.52403294     1.97466683     0.68080163    -0.12989732    -0.20522167
O       4.84433128     4.31661924     6.61550815    -0.68080163     0.12989732     0.20522167
O       2.33082698     0.52407799     6.26978195    -0.68193420    -0.12896658    -0.20580840
O       2.69614786     4.31657414     2.32039317     0.68193420     0.12896658     0.20580840
