# total energy = -19961.94263710 eV

CRYSTAL
PRIMVEC
        7.60600008     0.00000000     0.00000000
        0.00000000     7.60600008     0.00000000
       -1.89786986    -1.89786986     4.85670466
PRIMCOORD
24 1
Ti      3.81025898     6.58869598     1.20316798    -0.51613064     0.43902091     0.69802854
Ti      3.78953899     2.84884202     1.21904399     0.27734140    -0.05738447    -0.06544540
Ti     -0.00850801     6.67685601     1.22619598     0.60459205     0.34351134    -0.63401602
Ti     -0.02491202     2.89486499     1.20431900    -0.06173041    -0.71023203     0.21586193
Ti      5.70094621     2.86307425     3.66233182     0.44709649     0.13309192    -0.17792863
Ti      5.73286825    -0.94597980     3.62712983    -0.38997607    -0.20518516     0.41104704
Ti      1.91454921     2.85304221     3.64122479    -0.37222414    -0.30262512    -0.47922655
Ti      1.89633022    -0.98271078     3.69420083     0.22718533     0.28696530    -1.41690694
O       3.71170300     4.76780601     0.73110700     0.38994805    -0.28213960     0.88006374
O       3.75187702     0.91382900     0.69615601     0.14414407     0.07547373     1.58620669
O       0.01912499     4.77366500     0.78961601    -0.03526038    -0.53599987    -0.25138739
O      -0.02297899     0.97357099     0.82735498     0.25315348    -0.27074678    -0.73735821
O       5.72781720     4.72032822     3.95431283     0.10803420     0.73022185     0.81979038
O       5.72283621     0.90704420     3.99136783    -0.20696643     0.49118116     0.74397032
O       1.86914623     4.71706923     4.05045581    -0.00271586     0.19547719    -0.13065914
O       1.84732222     0.93763425     4.14513584     0.39420580     0.23623639    -0.90151961
O       3.83375720     2.94250021     3.22049982    -0.46082053    -0.62994545     0.11861763
O       3.82556024    -0.99080576     3.23913083    -0.66511892     0.04304491    -0.57234063
O      -0.05937178     2.73045423     3.22625881     1.46904919     0.42490761    -0.49180285
O      -0.00753580    -0.97203579     3.16121483     0.28730340    -0.02662481     0.64077905
O       5.73012701     6.65198198     1.58972302    -1.21496702    -0.05370831     0.07978445
O       5.75177099     2.89120102     1.59190201    -1.02013029     0.01447120    -0.12698966
O       1.85139302     6.67491901     1.61571203     1.30672639    -0.02602626     0.13544139
O       1.96645801     2.92288498     1.68675100    -0.96273939    -0.31298565    -0.34400936
