# total energy = -19915.07704294 eV

CRYSTAL
PRIMVEC
        6.76600266     0.00000000     0.00000000
        0.00003367     6.51525624     0.00000000
        0.00000000     0.00000000    11.56191099
PRIMCOORD
24 1
Ti      2.45237053     3.86093476     4.28938662     0.21948667    -0.92926773     0.78325884
Ti      4.31366580     2.65432135     7.27252477    -0.21948667     0.92926773    -0.78325884
Ti      5.83525394     2.65432360     1.49152289     0.21937277     0.92919600    -0.78357689
Ti      0.93078246     3.86093284    10.07038869    -0.21937277    -0.92919600     0.78357689
Ti      2.45235376     0.60330677     1.49156927     0.21948667    -0.92926773    -0.78325884
Ti      4.31368264     5.91194954    10.07034231    -0.21948667     0.92926773     0.78325884
Ti      0.93076562     0.60330439     7.27247846    -0.21937277    -0.92919600    -0.78357689
Ti      5.83527071     5.91195198     4.28943300     0.21937277     0.92919600     0.78357689
O       2.14149444     2.29413240     5.89995483     1.16764816     1.37756467    -0.45312085
O       4.62454196     4.22112371     5.66195656    -1.16764816    -1.37756467     0.45312085
O       1.24157025     2.29415875     0.11903636    -1.16703084     1.37788169    -0.45402408
O       5.52446621     4.22109743    11.44287477     1.16703084    -1.37788169     0.45402408
O       4.62452512     0.96349552     0.11899887    -1.16764816    -1.37756467    -0.45312085
O       2.14151127     5.55176059    11.44291225     1.16764816     1.37756467     0.45312085
O       5.52444937     0.96346924     5.89999238     1.16703084    -1.37788169    -0.45402408
O       1.24158689     5.55178694     5.66191907    -1.16703084     1.37788169     0.45402408
O       0.24584512     3.96294820     3.12316068    -0.17589257    -0.12021480     0.11836463
O       6.52019128     2.55230798     8.43875071     0.17589257     0.12021480    -0.11836463
O       3.62885244     2.55224734     2.65783178    -0.17586944     0.12056087    -0.11872407
O       3.13718389     3.96300884     8.90407948     0.17586944    -0.12056087     0.11872407
O       0.24582828     0.70532001     2.65779482    -0.17589257    -0.12021480    -0.11836463
O       6.52020805     5.80993617     8.90411637     0.17589257     0.12021480     0.11836463
O       3.13716712     0.70538065     8.43878760     0.17586944    -0.12056087    -0.11872407
O       3.62886928     5.80987546     3.12312379    -0.17586944     0.12056087     0.11872407
