# total energy = -19515.05862619 eV

CRYSTAL
PRIMVEC
        5.93400000     0.00000000     0.00000000
        0.00000000     9.29699974     0.00000000
        0.00000000     0.00000000     4.64899994
PRIMCOORD
23 1
Ti      4.56987202     6.74039602     2.24643500    -0.08828632     0.96470295     1.19699115
Ti      4.45413201     2.24878799     2.37061301    -0.78424332    -0.16584264     0.82249441
Ti      1.54585603     7.12392501     2.36060198     0.78598987    -0.13004130    -0.54274414
Ti      1.35034001     2.52661700     2.27782998     1.39913932    -0.92995730     0.24632334
Ti      2.90295902     4.58603701     0.11049300     0.84155632    -0.49840879     0.33411729
Ti      2.99946899     9.27587398     4.46585101     1.57062143    -0.05709034     0.66162248
Ti      0.01943800     4.69219298     0.04334099    -0.42224009    -0.28414300    -0.83589037
Ti      0.06520400     9.28533398     0.22427701    -0.49405103     1.47226024    -0.27021687
O       4.43620899     5.77565398     0.63631501    -1.17472102    -1.08585954     0.18790940
O       4.43612501     0.98828900     0.83400398    -0.15079706    -1.27149532    -0.25049779
O       1.53174398     5.55865601     1.03756101     0.91906816    -0.50278532    -0.95156383
O       1.44665799     1.01210002     1.06461901    -0.75195077    -1.38025534    -1.24268969
O       4.38075799     8.20860697     3.43601202    -1.10818958     1.08932591     1.96476089
O       4.63729401     3.85394499     3.66196700    -1.98248788    -0.41291161    -0.25686179
O       1.45118399     8.50878198     3.77093402    -0.10636144    -1.05489651    -0.80094418
O       1.38081601     3.50707899     3.97861302     0.18665753     2.13006617    -1.03218800
O       2.73027198     1.72580899     3.30870700     1.96190491    -2.13544698    -0.17134943
O       0.14908902     5.97404300     3.20187898     0.33590935     0.53233502    -0.09283768
O       5.73919901     1.16691701     3.20898000     0.33191206     1.68487512    -0.27519427
O       3.00829599     7.86712900     1.22789601    -0.91103603    -0.11174198     0.92790016
O       3.05132699     3.24279300     1.28777300    -0.95782473     0.04721139     1.06409258
O       0.05915302     7.61691701     1.44631397     0.06795222     2.82805563    -2.08385160
O       5.73901898     3.32202200     1.37816700     0.53147807    -0.72795645     1.40061745
