# total energy = -19961.45323837 eV

CRYSTAL
PRIMVEC
        7.60600008     0.00000000     0.00000000
        0.00000000     7.60600008     0.00000000
       -1.89786986    -1.89786986     4.85670466
PRIMCOORD
24 1
Ti      3.81370498     6.57898103     1.20016802    -0.51716654     0.52690048     0.89188928
Ti      3.78369402     2.84718999     1.22144698     0.55664661    -0.00344194    -0.04296058
Ti     -0.00982502     6.67942998     1.23278201     0.69526949     0.41671093    -0.89228189
Ti     -0.03100100     2.90343502     1.20222102    -0.15534277    -0.90251951     0.27069330
Ti      5.70053324     2.86662820     3.66878979     0.48283253     0.17285790    -0.12526728
Ti      5.73932823    -0.94215580     3.62551182    -0.46165948    -0.31114962     0.54154857
Ti      1.91911025     2.85445024     3.64200083    -0.38141918    -0.38450194    -0.54709933
Ti      1.89455520    -0.98565878     3.70746683     0.25037360     0.34351854    -1.97092871
O       3.69844700     4.77923602     0.72187498     0.44637581    -0.40679984     1.01532002
O       3.74721502     0.91556798     0.67466702     0.13275459    -0.12676675     2.12686232
O       0.02264201     4.77926402     0.79718902    -0.01957921    -0.79664890    -0.34953595
O      -0.02706202     0.97658598     0.84639001     0.34456780    -0.20712429    -0.99401430
O       5.72597323     4.70075322     3.92539583     0.14342596     1.10161321     0.96302916
O       5.72752621     0.89091123     3.96644480    -0.26589279     0.62439006     1.00109024
O       1.86846222     4.70962524     4.04101682    -0.02595684     0.28471893    -0.08197657
O       1.84014721     0.93464921     4.15934181     0.44065845     0.41041995    -1.12158966
O       3.84292922     2.95792922     3.22139180    -0.69992550    -0.76770726     0.10726415
O       3.83594524    -0.99422679     3.25325780    -0.94765678     0.03076969    -0.87521464
O      -0.08766276     2.71105522     3.24021279     2.23475896     0.48785158    -0.71435865
O      -0.01497677    -0.97357978     3.15184580     0.52003460    -0.07552027     0.91230076
O       5.74849300     6.65230499     1.57409599    -1.96757856    -0.08078332     0.15289611
O       5.77075501     2.89401498     1.57938099    -1.34471779     0.04506168    -0.19125518
O       1.82511302     6.67779302     1.60371902     2.04894964    -0.01893233     0.25005479
O       1.99796798     2.93336401     1.69233599    -1.50975259    -0.36291700    -0.32646620
