# total energy = -4977.40168444 eV

CRYSTAL
PRIMVEC
        4.56147476     0.00000000     0.00000000
        0.00000000     2.38238249     0.00000000
        0.00000000    -0.00012566     6.35301907
PRIMCOORD
6 1
Ti      2.28073716     1.19112836     3.17650954     0.00000000     0.00000000     0.00000000
Ti      0.00000000     0.00000000     0.00000000     0.00000000     0.00000000     0.00000000
O       2.28073716     0.46426676     1.23810986     0.00000000    -0.20357822     1.78884157
O       2.28073716     1.91799002     5.11490926     0.00000000     0.20357822    -1.78884157
O       0.00000000     0.72681224     4.41462069    -0.00000000     0.20337871     1.78578710
O       0.00000000     1.65544454     1.93839838    -0.00000000    -0.20337871    -1.78578710
