# total energy = -19517.55650745 eV

CRYSTAL
PRIMVEC
        5.17600016     0.00000000     0.00000000
        0.00000000     5.50899976     0.00000000
        0.00000000     0.00000000     9.26300011
PRIMCOORD
23 1
Ti      1.86235900     3.35270301     3.41829300    -0.30174067    -1.31175058     1.64405602
Ti      3.28618099     2.26348499     5.82895001     1.23552454     0.33309297    -2.73582781
Ti      4.29410003     2.09774001     1.53117501     1.20817211    -0.54414050    -0.84172549
Ti      0.95203099     3.30628099     7.79767602    -1.71945776     0.63548309     1.25583626
Ti      1.91361098     0.23463100     1.36686298    -0.07619184     0.68951613    -1.29626842
Ti      3.34415701     5.27479401     7.91195698    -0.10854996    -0.60568605     0.88170745
Ti      0.72533902     0.59160000     5.87597201    -1.27023419    -0.02147592    -2.88635773
Ti      4.48541702     4.87865298     3.37894301     0.51866061     0.87081651     2.59125386
O       1.68360801     1.97826999     4.80399099    -0.37187936    -0.10874819    -0.18791069
O       3.45149601     3.62615102     4.40681499     0.74113105    -0.24956474     1.45886864
O       0.24343201     2.57858702     0.13865799     0.00118811     0.31838625    -0.52985339
O       3.46405000     0.79405798     0.25010600    -0.06848084     0.41071434    -1.00706806
O       1.82693699     4.66962600     9.02713999    -0.26057960     0.08743142    -0.05599916
O       4.21530199     0.75366699     4.83768402     0.44917832     0.10565515    -0.69134599
O       0.96313398     4.69448998     4.45819800     0.15107165     0.91184799     0.52055654
O       0.11025498     3.28107501     2.72442901    -0.41866960    -1.01249103    -1.53708986
O       5.05833897     2.15545499     6.73220001    -0.37865113    -0.38042802     0.45905701
O       2.56112401     1.78104399     2.34646099     0.20124546     0.56629725    -0.49440867
O       2.57099201     3.60847702     6.98222198     1.11952918    -0.05161543     0.33255586
O       0.11759297     0.55354798     2.02091897     0.11210117     0.03062031     0.17301885
O       5.11256102     4.74917299     7.01871197    -0.67029070     0.17587303     1.65547918
O       2.41797199     0.87175798     6.77245802    -0.21774501    -0.62504569     1.87142672
O       2.90424900     4.50736602     2.25206201     0.12466847    -0.22478829    -0.57996087
