# total energy = -4924.36194287 eV

CRYSTAL
PRIMVEC
        5.76272055     0.00000000     0.00000000
       -0.00000747     2.18585921     0.00000000
       -2.88139482    -1.09303336     6.35997211
PRIMCOORD
6 1
Ti     -0.00024623     1.63945627     1.58999275    -0.03798009    -0.02529195    69.06524428
Ti      2.88156454    -0.54663070     4.76997886     0.03798009     0.02529195   -69.06524428
O       0.00006118     0.54644741     1.03598740     0.03613044     0.02521970   -64.17367550
O       2.88125696     0.54637811     5.32398427    -0.03613044    -0.02521970    64.17367550
O      -0.00002498    -0.54650762     4.21597346    -0.00137451     0.00010233    -0.90545519
O       2.88134301     1.63933308     2.14399821     0.00137451    -0.00010233     0.90545519
