# total energy = -4990.64925181 eV

CRYSTAL
PRIMVEC
        3.80347683     0.00000000     0.00000000
       -0.00000212     3.80347683     0.00000000
       -1.90175923    -1.90176029     4.84993278
PRIMCOORD
6 1
Ti     -0.00014622     2.85274137     1.21248333     0.00003317    -0.00003317     0.00000000
Ti      1.90186181    -0.95102472     3.63744982    -0.00003317     0.00003317     0.00000000
O       0.00004369     0.95086874     0.79093824    -0.00001183    -0.00008459     0.00059624
O       1.90167180     0.95084781     4.05899491     0.00001183     0.00008459    -0.00059624
O      -0.00001083    -0.95083587     3.21590469    -0.00008459    -0.00001183     0.00059624
O       1.90172631     2.85255242     1.63402846     0.00008459     0.00001183    -0.00059624
