# total energy = -4984.78167602 eV

CRYSTAL
PRIMVEC
        3.56687580     0.00000000     0.00000000
        1.52774498     3.22313485     0.00000000
       -2.54734416    -1.61158879     4.67792147
PRIMCOORD
6 1
Ti      1.14571863     2.41747519     1.16948032     0.00057233    -0.00057233     0.00000000
Ti      1.40155823    -0.80592894     3.50844086    -0.00057233     0.00057233     0.00000000
O       0.38197329     0.80577948     0.76199513     0.00068726     0.00077956    -2.24117592
O       2.16530344     0.80576665     3.91592611    -0.00068726    -0.00077956     2.24117592
O      -0.38194115    -0.80575919     3.10095572     0.00077956     0.00068726    -2.24117592
O       2.92921783     2.41730528     1.57696551    -0.00077956    -0.00068726     2.24117592
