# total energy = -19890.63609010 eV

CRYSTAL
PRIMVEC
        8.96828496     0.00000000     0.00000000
        0.00002824     3.62050490     0.00000000
        0.00000000     0.00000000    13.88066910
PRIMCOORD
24 1
Ti      3.25058881     2.14550780     5.14962925     0.17343434    -0.12265349     2.43100825
Ti      5.71772465     1.47499697     8.73103997    -0.17343434     0.12265349    -2.43100825
Ti      7.73457822     1.47499820     1.79064990     0.17425375     0.12228197    -2.43178164
Ti      1.23373523     2.14550676    12.09001945    -0.17425375    -0.12228197     2.43178164
Ti      3.25057481     0.33525542     1.79070555     0.17343434    -0.12265349    -2.43100825
Ti      5.71773864     3.28524948    12.08996380    -0.17343434     0.12265349     2.43100825
Ti      1.23372124     0.33525412     8.73098432    -0.17425375    -0.12228197    -2.43178164
Ti      7.73459222     3.28525078     5.14968490     0.17425375     0.12228197     2.43178164
O       2.83852888     1.27484130     7.08319917     1.41521335     0.71838912    -2.18353100
O       6.12978464     2.34566347     6.79747005    -1.41521335    -0.71838912     2.18353100
O       1.64568612     1.27485588     0.14290927    -1.41480095     0.71876912    -2.18374800
O       7.32262745     2.34564889    13.73775957     1.41480095    -0.71876912     2.18374800
O       6.12977065     0.53541103     0.14286425    -1.41521335    -0.71838912    -2.18353100
O       2.83854281     3.08509374    13.73780460     1.41521335     0.71838912     2.18353100
O       7.32261346     0.53539644     7.08324426     1.41480095    -0.71876912    -2.18374800
O       1.64569993     3.08510839     6.79742496    -1.41480095     0.71876912     2.18374800
O       0.32585573     2.20219630     3.74951500    -1.74650989     0.52796517     0.19469917
O       8.64245772     1.41830847    10.13115422     1.74650989    -0.52796517    -0.19469917
O       4.81001003     1.41827481     3.19086369    -1.74852615    -0.52807959    -0.19500513
O       4.15830349     2.20223002    10.68980528     1.74852615     0.52807959     0.19500513
O       0.32584174     0.39194385     3.19081936    -1.74650989     0.52796517    -0.19469917
O       8.64247171     3.22856091    10.68984961     1.74650989    -0.52796517     0.19469917
O       4.15828950     0.39197751    10.13119843     1.74852615     0.52807959    -0.19500513
O       4.81002402     3.22852726     3.74947073    -1.74852615    -0.52807959     0.19500513
