# total energy = -19518.24197463 eV

CRYSTAL
PRIMVEC
        5.93400000     0.00000000     0.00000000
        0.00000000     9.29699974     0.00000000
        0.00000000     0.00000000     4.64899994
PRIMCOORD
23 1
Ti      4.55139098     7.06112902     2.17970602    -0.37010967     0.47386940     0.36037855
Ti      4.48410001     2.31602901     2.33913903    -0.44960666    -0.73030670     0.15226387
Ti      1.36943701     7.04497599     2.21771999     0.55435679     0.30195818     0.53913919
Ti      1.45407103     2.37335198     2.41503902     0.31089688    -0.93013368    -0.03824595
Ti      2.98603800     4.54249101     0.19043602    -0.79877340    -0.97798964     0.38141867
Ti      3.00433700     0.01390000     4.61565199    -0.64220164     0.38434947     0.33863498
Ti      5.90408900     4.62737702     0.04102902     0.48364782     0.24453874    -0.80512763
Ti      0.02821801     0.01171598     4.55191502     0.68079186     0.49361754     0.50596295
O       4.40206298     5.48356703     1.02748299    -0.18280293     0.59124056    -0.18748054
O       4.52418899     0.87802799     0.92758999    -0.34041007     0.04785056     0.00303082
O       1.42933897     5.58632002     0.99471702     0.87526632    -0.53361878    -0.44251376
O       1.45178800     0.84643700     0.90573401     0.32007392     0.23581036     0.09580654
O       4.47336702     8.40458301     3.61196399    -0.17968830    -0.34678898     0.02619518
O       4.37399399     3.61684300     3.81534702     0.01084389     1.04322421     0.14208770
O       1.58948600     8.40410500     3.64255498    -0.61999296    -0.80307486    -0.16140003
O       1.51241001     3.76650798     3.81754601    -0.07613862     0.17611395    -0.50936504
O       2.91714500     1.39874401     3.24644602     0.49894718     0.28063653    -0.23603301
O       5.84143701     6.00037100     3.29204602     0.07301344     0.82851748    -0.69016765
O       0.05456701     1.42358200     3.32710798    -0.71550254     0.78628966    -1.08809743
O       2.93276599     7.89790902     1.33362600     0.47203749    -1.31629038     0.90522919
O       2.88844300     3.27748200     1.51441702     0.81249513    -0.07435427    -0.33240880
O       0.03619001     7.79850101     1.21702502    -0.58717899     0.07925994     0.39096595
O       5.92824102     3.22920003     1.39794903    -0.12996469    -0.25471954     0.64972701
