# total energy = -4985.01469020 eV

CRYSTAL
PRIMVEC
        3.31467144     0.00000000     0.00000000
        2.22450167     4.69308040     0.00000000
       -0.00001453    -0.00006979     5.33711158
PRIMCOORD
6 1
Ti      2.76957917     2.34650533     2.66855568     0.00000000     0.00000000     0.00000000
Ti      0.00000000     0.00000000     0.00000000     0.00000000     0.00000000     0.00000000
O       2.09085542     0.91459871     1.04012441     0.31729096     0.33245122    -0.28941736
O       3.44830287     3.77841197     4.29698694    -0.31729096    -0.33245122     0.28941736
O       0.67871768     1.43187846     3.70868119    -0.31821450    -0.33220542    -0.28871879
O       1.54576932     3.26113206     1.62843016     0.31821450     0.33220542     0.28871879
