# total energy = -4985.60497245 eV

CRYSTAL
PRIMVEC
        3.44184913     0.00000000     0.00000000
       -0.00000766     3.44184913     0.00000000
       -1.72095156    -1.72095539     4.39256497
PRIMCOORD
6 1
Ti     -0.00015157     2.58151721     1.09814112     0.00247109    -0.00243458     0.00011673
Ti      1.72104138    -0.86062357     3.29442356    -0.00247109     0.00243458    -0.00011673
O       0.00003438     0.86045644     0.71551289     0.00079987     0.00429503     2.36670622
O       1.72085534     0.86043711     3.67705184    -0.00079987    -0.00429503    -2.36670622
O      -0.00001944    -0.86044149     2.91179533     0.00429606     0.00073431     2.36692785
O       1.72090911     2.58133500     1.48076940    -0.00429606    -0.00073431    -2.36692785
