# total energy = -19518.09241440 eV

CRYSTAL
PRIMVEC
        5.93400000     0.00000000     0.00000000
        0.00000000     9.29699974     0.00000000
        0.00000000     0.00000000     4.64899994
PRIMCOORD
23 1
Ti      4.51352702     7.04355902     2.21903600    -0.25259684     0.18869590     0.09027018
Ti      4.44685900     2.39300101     2.36696999    -0.10661932    -1.25805641     0.05389831
Ti      1.39078000     6.94067098     2.23414798    -0.00507793     0.96911188     0.64794138
Ti      1.45571502     2.36392003     2.31895499     0.17827316    -1.25971580     0.03330017
Ti      2.98030002     4.51028200     0.05652999     0.75159750    -0.22128542     0.62961506
Ti      2.97450199     9.29206400     0.00687999    -0.28752040     0.65375876    -0.52100957
Ti      0.06593099     4.64683402     0.01891401    -0.47778416     0.60062689    -0.12596508
Ti      5.92301799     0.05906602     4.60606197     0.54104644     0.17659294    -0.53236716
O       4.43911798     5.53599902     0.95518901    -0.14908599     0.43685244     0.07821504
O       4.37529402     0.99727898     0.95066598     0.21699579    -0.98343858    -0.76189528
O       1.53232898     5.44879601     1.02070200     0.07897918     0.44226436    -0.25618019
O       1.53783100     1.00043399     0.84721902    -0.39668871    -0.69109402     0.02834077
O       4.50004502     8.44068898     3.67881299    -0.60368599    -0.38599960     0.33199048
O       4.52348900     3.73219602     3.82591199    -0.79853686    -0.13064860    -0.56928359
O       1.37522499     8.29221698     3.63708699     0.71097482     0.91364519     1.32761969
O       1.50831101     3.59375801     3.87578102    -0.03695139     0.92766979    -0.53867408
O       2.92817802     1.40452501     3.27853199     0.36425526     0.17837472    -0.53026940
O       0.00663599     6.04904398     3.32348698    -0.35908991    -0.15913129    -0.60468512
O       0.02828003     1.38066499     3.14047801    -0.42906277     0.05895362     0.67068922
O       2.91580702     7.75572798     1.39290200     0.56410410     0.01161342     0.36272417
O       2.94865300     3.30515501     1.46096298     0.48387228    -0.35849650     0.64790075
O       5.92361897     7.93232099     1.43878701     0.00134469    -0.31394313    -0.53497143
O       5.90550799     3.25878299     1.46686198     0.01125681     0.20364944     0.07279567
