# total energy = -19939.41220400 eV

CRYSTAL
PRIMVEC
        5.44175079     0.00000000     0.00000000
        2.72551422     5.11028383     0.00000000
        0.00000000     0.00000000    10.07864350
PRIMCOORD
24 1
Ti      3.58751016     3.02834947     3.73910487     2.72157747    -4.21654853     0.99854665
Ti      4.57975500     2.08193449     6.33953874    -2.72157747     4.21654853    -0.99854665
Ti      5.80353670     2.08193631     1.30017667    -5.88362544     0.43753841     1.39253621
Ti      2.36372862     3.02834788     8.77846700     5.88362544    -0.43753841    -1.39253621
Ti      2.22475326     0.47320772     1.30021709     2.72157747    -4.21654853    -0.99854665
Ti      5.94251200     4.63707643     8.77842662    -2.72157747     4.21654853     0.99854665
Ti      1.00097146     0.47320576     6.33949831     5.88362544    -0.43753841     1.39253621
Ti      7.16629378     4.63707834     3.73914525    -5.88362544     0.43753841    -1.39253621
O       2.68204842     1.79941785     5.14305465     0.73611174     1.58868960    -1.34430230
O       5.48521679     3.31086615     4.93558896    -0.73611174    -1.58868960     1.34430230
O       1.95826966     1.79943842     0.10376529     1.50135511    -0.86105197     0.18003205
O       6.20899563     3.31084562     9.97487800    -1.50135511     0.86105197    -0.18003205
O       4.12245979     0.75572421     0.10373258    -0.73611174    -1.58868960    -1.34430230
O       4.04480542     4.35455973     9.97491071     0.73611174     1.58868960     1.34430230
O       4.84623862     0.75570368     5.14308731    -1.50135511     0.86105197     0.18003205
O       3.32102654     4.35458033     4.93555625     1.50135511    -0.86105197    -0.18003205
O       1.85552362     3.10836428     2.72249305     0.59313778     0.48985498     0.59898730
O       6.31174160     2.00191972     7.35615051    -0.59313778    -0.48985498    -0.59898730
O       3.98627429     2.00187199     2.31686076     1.72792646     0.10649616    -0.77084890
O       4.18099092     3.10841200     7.76178263    -1.72792646    -0.10649616     0.77084890
O       0.49276662     0.55322234     2.31682859     0.59313778     0.48985498    -0.59898730
O       7.67449859     4.55706161     7.76181480    -0.59313778    -0.48985498     0.59898730
O       2.81823392     0.55327006     7.35618262    -1.72792646    -0.10649616    -0.77084890
O       5.34903128     4.55701388     2.72246088     1.72792646     0.10649616     0.77084890
