# total energy = -19518.42205271 eV

CRYSTAL
PRIMVEC
        7.60600008     0.00000000     0.00000000
        0.00000000     7.60600008     0.00000000
       -1.89786986    -1.89786986     4.85670466
PRIMCOORD
23 1
Ti      3.90645599     6.66941800     1.18749597    -0.08750316    -0.66995877    -0.03288416
Ti      3.81998801     2.83420699     1.17774901    -0.96936924     1.72433077     1.03897417
Ti      0.07334799     6.63500502     1.20185398    -0.52621194    -0.86128157    -0.19560189
Ti     -0.03275702     2.72203798     1.16003501     1.82915700     1.06109852    -0.49437653
Ti      5.51210122     2.82236522     3.67449681    -0.02530738     0.06588429     1.49982273
Ti      5.67982522    -1.02718876     3.56789781     0.15398163     0.59292155     0.14938989
Ti      1.85332722     2.88526720     3.62627881     0.74021856     0.07763577     1.38686179
Ti      1.89582825    -0.89866479     3.64846282    -0.05191702    -0.10632107    -0.93165500
O       4.00087698     4.76805599     0.75249698    -1.07006962    -0.45108299     0.28348325
O       4.02827900     1.08296802     0.82581100     0.10758194    -1.15033255    -0.12833718
O       0.17677902     4.72059498     0.72795401     0.12736607     0.93082222    -0.03656213
O      -0.21786100     0.92656402     0.84785599     0.48445412    -0.45760408     0.03509763
O       5.56136423     4.81844022     4.08293380     0.36375493    -1.37577493     0.20790822
O       5.68166622     0.91893222     4.10843184     0.10113309     0.25283544    -1.18320514
O       2.02614121     4.83030623     4.08018584    -0.95060404    -0.28347477    -0.06040012
O       1.60257520     0.96078422     3.97618383     0.20760354     0.80764011     0.76204929
O       3.71304123     2.93344625     3.26693984     1.05269487    -0.61191584    -0.86703081
O       3.80464520    -0.80228976     3.21442381    -0.23460914    -0.02287871    -0.67755227
O      -0.06958279    -1.07667975     3.36284882     1.21989531     0.26091976    -1.00968904
O       5.77244901     6.47182898     1.49361602    -0.58642051     0.58317269     1.59089870
O       5.98238601     3.14265901     1.89453801    -1.80660379    -0.52518632    -0.20290459
O       1.92101502     6.68125400     1.59597102     0.14030284     0.23301351     0.49920840
O       1.84666699     2.79794602     1.77027999    -0.21952781    -0.07446277    -1.63349495
