# total energy = -19961.13995520 eV

CRYSTAL
PRIMVEC
        5.23404155     0.00000000     0.00000000
        0.55569971     5.54281655     0.00000000
        0.00000000     0.00000000     9.37954225
PRIMCOORD
24 1
Ti      2.22639551     3.28466799     3.47974336     0.46426273    -0.68528178     0.46577891
Ti      3.56334591     2.25814861     5.89979921    -0.46426273     0.68528178    -0.46577891
Ti      4.74041565     2.25815049     1.20999046    -0.62448905    -0.31106400     0.30939844
Ti      1.04932579     3.28466637     8.16955227     0.62448905     0.31106400    -0.30939844
Ti      1.94854576     0.51325976     1.21002809     0.46426273    -0.68528178    -0.46577891
Ti      3.84119567     5.02955705     8.16951465    -0.46426273     0.68528178     0.46577891
Ti      0.77147597     0.51325772     5.89976164     0.62448905     0.31106400     0.30939844
Ti      5.01826541     5.02955904     3.47978099    -0.62448905    -0.31106400    -0.30939844
O       1.85227857     1.95171995     4.78630874     0.32414244     0.48734481    -0.28958166
O       3.93746285     3.59109670     4.59323383    -0.32414244    -0.48734481     0.28958166
O       1.15611777     1.95174236     0.09656765    -0.01861274    -0.14843781     0.27464277
O       4.63362371     3.59107434     9.28297471     0.01861274     0.14843781    -0.27464277
O       3.65961309     0.81968826     0.09653724    -0.32414244    -0.48734481    -0.28958166
O       2.13012833     4.72312839     9.28300512     0.32414244     0.48734481     0.28958166
O       4.35577395     0.81966590     4.78633920     0.01861274     0.14843781     0.27464277
O       1.43396741     4.72315076     4.59320342    -0.01861274    -0.14843781    -0.27464277
O       0.52817288     3.37145536     2.53364842    -0.10825120     0.07546293     0.00331107
O       5.26156849     2.17136129     6.84589415     0.10825120    -0.07546293    -0.00331107
O       3.02488256     2.17130967     2.15615269     0.38241626     0.06308461    -0.19308683
O       2.76485886     3.37150692     7.22338978    -0.38241626    -0.06308461     0.19308683
O       0.25032312     0.60004692     2.15612270    -0.10825120     0.07546293    -0.00331107
O       5.53941824     4.94276968     7.22341971     0.10825120    -0.07546293     0.00331107
O       2.48700910     0.60009853     6.84592408    -0.38241626    -0.06308461    -0.19308683
O       3.30273232     4.94271811     2.53361849     0.38241626     0.06308461     0.19308683
