# total energy = -4986.84380813 eV

CRYSTAL
PRIMVEC
        2.84040601     0.00000000     0.00000000
        1.09550548     4.31355218     0.00000000
       -0.00000705    -0.00005832     4.48622018
PRIMCOORD
6 1
Ti      1.96795211     2.15674684     2.24311014     0.00000000     0.00000000     0.00000000
Ti      0.00000000     0.00000000     0.00000000     0.00000000     0.00000000     0.00000000
O       1.63369943     0.84063637     0.87429826    -3.50070481     1.62914284     1.81101915
O       2.30220474     3.47285732     3.61192202     3.50070481    -1.62914284    -1.81101915
O       0.33424969     1.31608687     3.11740930     3.50059836    -1.63000750     1.81186067
O       0.76124864     2.99740690     1.36881098    -3.50059836     1.63000750    -1.81186067
