# total energy = -19071.23250979 eV

CRYSTAL
PRIMVEC
        5.17600016     0.00000000     0.00000000
        0.00000000     5.50899976     0.00000000
        0.00000000     0.00000000     9.26300011
PRIMCOORD
22 1
Ti      1.79050499     3.54471799     3.42870599     0.23979197    -0.53912814    -3.34269940
Ti      3.57806097     2.30099101     6.01174101     2.38238070     1.20012250     0.56086245
Ti      4.30208600     2.23749598     1.69036698    -0.85296688    -1.58569144    -1.49587557
Ti      0.98883500     2.62841398     7.83953701    -0.36634917    -0.15050652     0.67765563
Ti      1.77200601     0.58539900     1.05768800     1.16908464     0.97933330     0.03653950
Ti      3.32387100     5.50498802     7.70386401     1.31191256    -2.14810067     1.71497375
Ti      0.95609200     5.45787002     6.16647101     1.18983782    -0.18392599     6.27595536
Ti      4.38060601     5.18221900     3.60797701    -1.39062177    -1.28287014    -0.06894056
O       3.28342900     2.80995199     4.27876500     0.36349679     0.62056040     0.60148230
O       0.70373198     1.92964701     0.18587499    -0.69090735     1.12329071     0.59784778
O       4.84101498     3.75101102     7.51955401    -1.86069211     1.66811641    -1.40001067
O       3.58327702     1.00847002     0.17973299    -0.48643901     0.18679097    -0.32036497
O       1.84791098     5.05858599     8.88405300    -0.74056000    -0.72998711    -0.77314515
O       3.77601401     0.19730300     5.36007298     0.45992245    -0.38759369    -1.16182641
O       0.98459899     4.88595202     4.62327299    -0.14341233    -1.60372131    -5.08327955
O       0.03188298     3.69998299     2.33973001    -0.49816788    -0.17959008     1.19689010
O       5.10932398     1.20585297     7.08153500    -2.18201764     0.59776602     0.06389194
O       2.36687199     2.32910202     1.88289198     1.56694063     0.06247192     1.59008340
O       2.26391198     3.71829998     7.05017098     1.81679539     1.49041481    -2.49808887
O       0.06629400     0.72794300     2.34730201     0.14763048     1.20116816     0.41538578
O       2.34174999     1.34796199     6.86509701    -2.87861151    -0.63612792     0.26447997
O       2.41642198     4.84951198     2.29465998     1.44295171     0.29720755     2.14818294
