# total energy = -4983.53608484 eV

CRYSTAL
PRIMVEC
        4.17430532     0.00000000     0.00000000
        0.00000000     2.80307595     0.00000000
        0.00000000    -0.00008984     5.56165904
PRIMCOORD
6 1
Ti      2.08715266     1.40149300     2.78082942     0.00000000     0.00000000     0.00000000
Ti      0.00000000     0.00000000     0.00000000     0.00000000     0.00000000     0.00000000
O       2.08715266     0.54626070     1.08388541     0.00000000    -0.68616778     1.43756782
O       2.08715266     2.25672536     4.47777342     0.00000000     0.68616778    -1.43756782
O       0.00000000     0.85519668     3.86471589     0.00000000     0.68600657     1.43764701
O       0.00000000     1.94778933     1.69694289     0.00000000    -0.68600657    -1.43764701
