# total energy = -4978.91326402 eV

CRYSTAL
PRIMVEC
        3.28972320     0.00000000     0.00000000
       -0.00000732     3.28972320     0.00000000
       -1.64488740    -1.64489106     4.19841845
PRIMCOORD
6 1
Ti     -0.00014487     2.46741700     1.04960450     0.00561889    -0.00557107     0.00258910
Ti      1.64497326    -0.82258495     3.14881368    -0.00561889     0.00557107    -0.00258910
O       0.00003286     0.82242521     0.68388801     0.00145010     0.00525277     4.07477990
O       1.64479543     0.82240674     3.51453021    -0.00145010    -0.00525277    -4.07477990
O      -0.00001858    -0.82241093     2.78309719     0.00526691     0.00144959     4.07853680
O       1.64484683     2.46724284     1.41532103    -0.00526691    -0.00144959    -4.07853680
