# total energy = -19959.65257444 eV

CRYSTAL
PRIMVEC
        7.60600008     0.00000000     0.00000000
        0.00000000     7.60600008     0.00000000
       -1.89786986    -1.89786986     4.85670466
PRIMCOORD
24 1
Ti      3.79482701     6.73169999     1.33276899    -0.76533028    -1.99178422    -1.05665309
Ti      3.75731601     2.84587101     1.19099701     0.52696656     1.72526897     0.81105634
Ti     -0.03017702     6.49953199     1.20100301     0.44276598    -1.43389551    -0.33843829
Ti      0.08185901     2.67307702     1.20952202    -0.39098240     2.58967134     0.07485435
Ti      5.73505322     2.76534722     3.53088181     0.21238811     0.93271096     0.80677365
Ti      5.68775621    -1.06441178     3.64904179     0.39283900    -0.60439870    -0.97990331
Ti      1.93471325     2.94269124     3.66158679    -0.54982264     2.48078251     1.01802019
Ti      1.86588523    -0.79343376     3.74302881    -0.48713758    -3.32151942    -2.12463446
O       3.85259702     4.82404601     0.73976799    -0.09911683    -1.27713761    -0.22322506
O       3.79629600     0.90098502     0.86655003     0.00680391     3.25458586     0.58247952
O       0.08378702     4.58413800     0.61671502    -0.52696759     0.32805463     0.90770722
O       0.08298298     0.73701199     0.70936702    -0.19043140     3.20135475     0.84593388
O       5.66513324     4.66085722     4.08230080    -0.12823613     0.65850939    -0.61991917
O       5.92455525     0.92941824     3.83852980    -0.89992192    -1.50077018     0.85843741
O       1.74074825     4.85266725     4.25467981     0.32676291    -0.54659257    -1.33066671
O       1.77169824     0.99527922     4.09078579    -0.05173164     1.05333842    -0.57114507
O       3.79155822     3.18856022     3.03987983    -0.31081049    -1.30734756     1.79663510
O       3.67412220    -0.94488778     3.33763781     1.77728857     0.35343220     0.32213389
O      -0.00245676     3.21461421     3.13117280     0.66093137    -1.89823640    -0.52671330
O      -0.08920177    -1.00403377     3.10207382     0.46031814    -0.02963300     1.34213023
O       5.66703998     6.42316902     1.55663701     0.06572951     0.61333200     0.91238638
O       5.70976501     2.89650200     1.64247998     0.63400985    -0.95942653    -1.87841370
O       1.89457500     6.70628901     1.72068799    -0.58516967    -0.34511339     0.13267051
O       1.90745300     3.18476702     1.66412402    -0.52114481    -1.97518646    -0.76150705
