# total energy = -19925.32379333 eV

CRYSTAL
PRIMVEC
        6.23316128     0.00000000     0.00000000
        1.63300882     6.42983824     0.00000000
        0.00000000     0.00000000    11.24554473
PRIMCOORD
24 1
Ti      3.22694075     3.81031638     4.17201710    -0.14106851    -1.95030923     0.75656153
Ti      4.63922953     2.61952229     7.07352826     0.14106851     1.95030923    -0.75656153
Ti      6.04098898     2.61952451     1.45071068    -0.06335226    -0.46997623    -0.14678716
Ti      1.82518133     3.81031440     9.79483480     0.06335226     0.46997623     0.14678716
Ti      2.41043647     0.59539730     1.45075577    -0.14106851    -1.95030923    -0.75656153
Ti      5.45573384     5.83444161     9.79478972     0.14106851     1.95030923     0.75656153
Ti      1.00867693     0.59539484     7.07348317     0.06335226     0.46997623    -0.14678716
Ti      6.85749337     5.83444401     4.17206219    -0.06335226    -0.46997623     0.14678716
O       2.54784508     2.26405549     5.73851566     1.79299314     2.01215071    -0.62025676
O       5.31832514     4.16578318     5.50702970    -1.79299314    -2.01215071     0.62025676
O       1.71879898     2.26408144     0.11577922    -0.73529747     0.09753689     0.96275354
O       6.14737138     4.16575734    11.12976583     0.73529747    -0.09753689    -0.96275354
O       4.50182084     0.95086392     0.11574273    -1.79299314    -2.01215071    -0.62025676
O       3.36434944     5.47897474    11.12980231     1.79299314     2.01215071     0.62025676
O       5.33086707     0.95083802     5.73855215     0.73529747    -0.09753689     0.96275354
O       2.53530316     5.47900072     5.50699321    -0.73529747     0.09753689    -0.96275354
O       1.21975370     3.91099225     3.03770236     0.49175863     1.57936807     1.67657868
O       6.64641652     2.51884642     8.20784300    -0.49175863    -1.57936807    -1.67657868
O       3.98276334     2.51878646     2.58510611     0.70771800     1.60075168     0.77383755
O       3.88340695     3.91105227     8.66043906    -0.70771800    -1.60075168    -0.77383755
O       0.40324940     0.69607299     2.58507019     0.49175863     1.57936807    -1.67657868
O       7.46292089     5.73376573     8.66047498    -0.49175863    -1.57936807     1.67657868
O       3.06690264     0.69613294     8.20787886    -0.70771800    -1.60075168     0.77383755
O       4.79926764     5.73370572     3.03766644     0.70771800     1.60075168    -0.77383755
