# total energy = -4990.10312467 eV

CRYSTAL
PRIMVEC
        3.80300513     0.00000000     0.00000000
        0.75306242     3.72769970     0.00000000
       -2.27806842    -1.86387819     4.87817619
PRIMCOORD
6 1
Ti      0.56466572     2.79591733     1.21954418     0.00029799    -0.00029799     0.00000000
Ti      1.71333341    -0.93209582     3.65863217    -0.00029799     0.00029799     0.00000000
O       0.18830545     0.93191948     0.79461510    -0.00020903    -0.00010490    -0.36730691
O       2.08969357     0.93190194     4.08356130     0.00020903     0.00010490     0.36730691
O      -0.18828049    -0.93189905     3.23370309    -0.00010490    -0.00020903    -0.36730691
O       2.46627939     2.79572037     1.64447326     0.00010490     0.00020903     0.36730691
