# total energy = -19073.53849615 eV

CRYSTAL
PRIMVEC
        5.93400000     0.00000000     0.00000000
        0.00000000     9.29699974     0.00000000
        0.00000000     0.00000000     4.64899994
PRIMCOORD
22 1
Ti      4.49235999     6.91043099     2.41384203    -0.86111753     0.50695951    -0.11055388
Ti      4.33528197     2.28474299     2.21265900     2.58532592     0.10262613     0.11008979
Ti      1.50122903     7.15173698     2.41724702     0.70591618    -0.08099595     0.09278189
Ti      1.62279300     2.40106398     2.19134098    -1.95735199     1.59516082    -0.05297503
Ti      3.01911200     4.68272198     4.61470799    -2.42889892     0.01771696    -1.12893736
Ti      2.98078401     0.07130700     0.12865299     0.98248342    -0.93986557    -0.72047145
Ti      5.78203099     4.55562799     4.57607900     1.82673142    -0.86397917    -0.14671054
Ti      0.02488599     9.13268502     0.02415599    -1.10481758    -0.35824479     0.31189061
O       4.32985600     5.40424198     0.94926302     1.21522876     1.59671865     1.95563733
O       4.52757499     0.90203797     0.82982798    -0.00478920     0.14230778     0.28121323
O       1.56952898     0.82716400     0.98979001    -1.33374818     0.75018287    -0.13727511
O       4.42376999     8.25906302     3.94667399     0.39456884     0.63014394    -0.80768768
O       4.32882300     4.02108499     3.57828498     0.75299103    -2.56121539    -1.57116933
O       1.51795399     8.32023898     3.82264098     0.16639389     1.07716381     0.53237410
O       1.45487903     3.87933402     3.57259098    -0.50598378    -0.60549450     0.39297501
O       2.91290200     6.15176401     3.33533398    -0.30081532    -0.47263321    -0.12318571
O       2.97859999     1.42341399     3.08421800    -0.37447617    -1.25761264     2.41565979
O       5.88193002     6.22336100     3.38476898     1.10046830    -1.43521089     0.29375584
O       3.03907299     7.96322600     1.62738202    -0.67208636     0.07402980    -1.15269051
O       3.11215898     2.98541701     1.17601600    -1.73256216     2.18090924    -1.22731989
O       5.93137899     8.05216699     1.50892300     0.14644161    -1.40038220     0.77792200
O       5.83457998     2.98583802     1.27649898     1.40009809     1.30171453     0.01467689
