# total energy = -19517.88258950 eV

CRYSTAL
PRIMVEC
        5.93400000     0.00000000     0.00000000
        0.00000000     9.29699974     0.00000000
        0.00000000     0.00000000     4.64899994
PRIMCOORD
23 1
Ti      4.53419399     7.03438398     2.31749203    -0.15488074    -0.00902175    -0.33348506
Ti      4.48365301     2.30088501     2.32907799    -1.08064277    -0.46147771     0.13490069
Ti      1.47029100     7.10925002     2.38280298     0.05021675     0.00082018    -0.40113878
Ti      1.39535902     2.29810498     2.27058602     1.23731917    -0.21565213     0.41827236
Ti      3.00049697     4.41753702     0.00751500    -0.39609402     0.07590748     1.37622796
Ti      2.91379298     0.06210699     4.64852898     0.82567872     0.03498476    -0.10568523
Ti      0.04678398     4.65414402     0.03422898     0.46069712     0.81279903     0.11225132
Ti      5.86547901     0.07498801     0.01783999    -0.22529711    -0.52517887    -0.35852941
O       4.36193002     5.62711001     0.85948900     0.20050267    -0.57159990    -0.03227147
O       4.49795699     0.97156398     0.88111002    -0.58772432    -0.33427747    -0.17209300
O       1.55522998     5.47280002     0.90893300    -0.16018107     0.50592233     0.08210075
O       1.41901298     0.89971198     0.81840998     0.64122900     1.08635242     1.13460613
O       4.44929501     8.44887901     3.75083502    -0.34862141    -1.10564445    -0.42925329
O       4.43915799     3.63592503     3.65902102     0.34097546     1.40253627     0.67729156
O       1.55230199     8.37757899     3.84811500    -0.44374609    -1.34633553    -1.36991873
O       1.48666501     3.64095798     3.76982603    -0.35819517     0.54811646    -0.69700936
O       2.91344102     1.53992501     3.23744598     0.11479877    -1.40496185     0.15710012
O       0.06545198     6.00327401     3.29968400    -0.21562565     0.94701966    -1.09494377
O       0.01487602     1.24808000     3.12963501     0.05436445     1.08772308    -0.22817521
O       3.00879802     7.98007501     1.42805000    -0.28239928    -0.89512090     1.05657492
O       2.97350301     3.15939297     1.37266600    -0.08793793     0.37210201    -0.42485490
O       0.00641500     7.94099500     1.49900399     0.26900485    -0.07683153    -0.40443622
O       5.89170302     3.18429801     1.29088800     0.14655911     0.07181839     0.90246860
