# total energy = -19934.81742915 eV

CRYSTAL
PRIMVEC
        6.03382093     0.00000000     0.00000000
        1.27167702     6.29463914     0.00000000
        0.00000000     0.00000000    10.85415374
PRIMCOORD
24 1
Ti      2.94056441     3.73019733     4.02681376    -0.01996591    -1.78918199     0.80867395
Ti      4.36493325     2.56444197     6.82734041     0.01996591     1.78918199    -0.80867395
Ti      5.72186340     2.56444422     1.40021996    -0.12333715    -0.26193792    -0.20281306
Ti      1.58363428     3.73019532     9.45393433     0.12333715     0.26193792     0.20281306
Ti      2.30472604     0.58287799     1.40026348    -0.01996591    -1.78918199    -0.80867395
Ti      5.00077164     5.71176149     9.45389081     0.01996591     1.78918199     0.80867395
Ti      0.94779581     0.58287556     6.82729689     0.12333715     0.26193792    -0.20281306
Ti      6.35770187     5.71176392     4.02685728    -0.12333715    -0.26193792     0.20281306
O       2.35752141     2.21644948     5.53879174     1.68797202     1.87339439    -0.53170125
O       4.94797625     4.07818982     5.31536243    -1.68797202    -1.87339439     0.53170125
O       1.55498750     2.21647483     0.11174961    -0.81663923     0.30573102     0.76521766
O       5.75051023     4.07816452    10.74240425     0.81663923    -0.30573102    -0.76521766
O       4.31213787     0.93087030     0.11171438    -1.68797202    -1.87339439    -0.53170125
O       2.99335979     5.36376900    10.74243948     1.68797202     1.87339439     0.53170125
O       5.11467184     0.93084500     5.53882697     0.81663923    -0.30573102     0.76521766
O       2.19082576     5.36379436     5.31532720    -0.81663923     0.30573102    -0.76521766
O       0.99272866     3.82875628     2.93197782     0.42134663     1.14354355     1.31305670
O       6.31276900     2.46588302     7.92217635    -0.42134663    -1.14354355    -1.31305670
O       3.73430408     2.46582423     2.49513379     0.70463525     1.31745895     0.48687482
O       3.57119359     3.82881507     8.35902019    -0.70463525    -1.31745895    -0.48687482
O       0.35689027     0.68143675     2.49509911     0.42134663     1.14354355    -1.31305670
O       6.94860739     5.61320260     8.35905487    -0.42134663    -1.14354355     1.31305670
O       2.93535519     0.68149549     7.92221097    -0.70463525    -1.31745895     0.48687482
O       4.37014247     5.61314381     2.93194314     0.70463525     1.31745895    -0.48687482
