# total energy = -19074.07178972 eV

CRYSTAL
PRIMVEC
        5.93400000     0.00000000     0.00000000
        0.00000000     9.29699974     0.00000000
        0.00000000     0.00000000     4.64899994
PRIMCOORD
22 1
Ti      4.39413601     7.01012602     2.28141902    -0.65536493    -0.06926657     0.12192844
Ti      4.39741802     2.35161703     2.28127101    -0.15530549    -0.59549240    -0.27819424
Ti      1.41217299     6.95472000     2.49383902     0.20473728     0.36422312     1.20233544
Ti      1.61330898     2.40604698     2.13555602    -0.51815436     0.14386690    -0.09313722
Ti      3.04398402     4.72430700     4.58679198    -0.75334688     0.49186584     0.10460691
Ti      2.97856300     9.22874498     0.01067298     0.96581623    -0.00688207    -0.87141403
Ti      5.82903002     4.53374800     4.51115800     1.59158749    -0.12915170     0.48329095
Ti      0.03673400     9.16241103     0.25403699    -1.56932199    -0.23525037    -0.38112119
O       4.50569901     5.55688797     0.84553402     0.26996850     0.89933597     1.60672641
O       4.42801399     0.94444000     0.75593801     0.94393974     0.56327518     0.72166444
O       1.48194401     0.75859400     1.03420301    -0.11476663     2.03451880    -0.19976116
O       4.53624698     8.25660298     3.93862801    -0.47692104     0.85397063    -0.76791141
O       4.39031699     3.87875002     3.63727300    -0.18480711    -1.88919537    -1.59238017
O       1.38938599     8.25584398     3.80143601     0.40817101     1.33777761     0.65853715
O       1.60423798     3.92160099     3.66333598    -0.94175276    -0.34082248    -0.49270582
O       3.04688597     6.28138799     3.35973398    -1.35627568    -1.38759378    -0.04217639
O       2.96130701     1.33329902     3.09485102    -0.16177644     0.49890964     0.49763489
O       5.81540799     6.18983000     3.35745000     1.39567425    -1.60383135    -0.83034270
O       2.96568399     8.11471902     1.50828100    -0.13512746    -1.96012133     0.58580396
O       3.11656301     3.17703601     1.23050099    -0.78092351     0.78065971     0.29949892
O       5.90148598     7.95026899     1.64416001     0.79658719     0.00705254    -0.87844549
O       5.85878598     3.12493502     1.28252002     1.22736283     0.24215198     0.14556203
