# total energy = -19958.02757585 eV

CRYSTAL
PRIMVEC
        7.60600008     0.00000000     0.00000000
        0.00000000     7.60600008     0.00000000
       -1.89786986    -1.89786986     4.85670466
PRIMCOORD
24 1
Ti      3.67374400     6.60034402     1.39519699    -1.66912968     0.73686301    -1.45999633
Ti      3.76158901     2.98758801     1.27933199     1.59633967    -0.93476475    -0.16577837
Ti     -0.14622898     6.57798400     1.06372200     1.70309037    -0.12484227     2.17046156
Ti      0.12738101     2.78483200     1.11214299    -0.44560757     0.22549406    -0.50169697
Ti      5.75485525     2.90327325     3.55584982     0.42525214    -0.51124348    -0.74643266
Ti      5.78656921    -1.04442476     3.62845183     0.48030822     0.90965278    -0.16665434
Ti      1.84511523     2.93896721     3.75034579     0.53203523     0.31484713    -2.80938736
Ti      1.81394124    -0.92098178     3.74511382    -0.20094618    -0.58158735     0.27808291
O       3.70960899     4.82410501     0.62762099     0.48052470    -0.40514070     4.53746474
O       3.57893798     1.16103298     0.79433501     1.20381666    -3.00398086     1.42447164
O       0.12333402     4.76990298     0.54015498    -0.45991602    -1.01028631     1.68195101
O       0.34989099     0.82676299     0.66021403    -1.46786725     1.54911594     1.26375295
O      -1.40362477     4.76653921     4.17669983    -1.25023589    -1.11480015    -2.46784780
O       5.86134323     0.89117725     3.97520480    -0.78470560    -0.04267107    -0.54016943
O       1.50312623     4.74924220     4.27686679     0.70347465     1.34505281    -0.53699232
O       1.83588522     1.02745923     4.21819479     0.83146216    -0.18119959    -2.58744965
O       3.82258225     3.18615722     3.38638779     0.45816587    -0.61470960    -1.32009921
O       3.72859121    -1.30397577     3.36032179     1.02773691     0.90422286    -0.45517619
O       0.08625325     2.76601520     3.03817180     0.27174077    -0.11521349     0.37943249
O       0.01464022    -1.06981875     3.17428683    -1.84449184     1.10039219    -0.89458045
O       5.58585302     6.64606498     1.44456002     0.83343651     0.01514560     1.02083503
O       5.88419998     3.08618299     1.51818402    -1.37378644    -0.65190988     0.46937383
O       1.78328500     6.29820201     1.78436198     1.56941995     1.16783508    -0.34202704
O       2.02984302     2.84456098     1.38393398    -2.62011733     1.02372701     1.76846223
