# total energy = -19936.22145569 eV

CRYSTAL
PRIMVEC
        4.74659143     0.00000000     0.00000000
        1.24354647     4.89636217     0.00000000
        0.00000000     0.00000000     8.56355289
PRIMCOORD
24 1
Ti      2.45733564     2.90157983     3.17701720     3.11252671    -1.25521483     0.56172866
Ti      3.53280240     1.99478266     5.38653617    -3.11252671     1.25521483    -0.56172866
Ti      4.60025102     1.99478436     1.10472529    -5.38548764     0.22621217     2.54454898
Ti      1.38988704     2.90157833     7.45882818     5.38548764    -0.22621217    -2.54454898
Ti      1.83556250     0.45339878     1.10475963     3.11288152    -1.25530353    -0.56713826
Ti      4.15457556     4.44296390     7.45879384    -3.11288152     1.25530353     0.56713826
Ti      0.76811381     0.45339690     5.38650183     5.38527090    -0.22683720     2.55174062
Ti      5.22202424     4.44296573     3.17705154    -5.38527090     0.22683720    -2.55174062
O       1.94020002     1.72409246     4.36991569    -2.24776489    -1.22526841    -0.89774600
O       4.04993797     3.17227004     4.19363768     2.24776489     1.22526841     0.89774600
O       1.30887621     1.72411223     0.08816660     1.99249513    -1.29743107    -0.78966218
O       4.68126188     3.17225036     8.47538653    -1.99249513     1.29743107     0.78966218
O       3.42816482     0.72408884     0.08813882     2.24790219     1.22549312    -0.89749866
O       2.56197321     4.17227365     8.47541432    -2.24790219    -1.22549312     0.89749866
O       4.05948873     0.72406912     4.36994348    -1.99263063     1.29761619    -0.78991800
O       1.93064927     4.17229343     4.19360989     1.99263063    -1.29761619     0.78991800
O       0.92885010     2.97824515     2.31322941    -0.89870656    -2.30264511    -2.87161399
O       5.06128789     1.91811736     6.25032396     0.89870656     2.30264511     2.87161399
O       3.03289928     1.91807170     1.96857453     1.22114307    -3.00231916    -2.80853632
O       2.95723877     2.97829085     6.59497870    -1.22114307     3.00231916     2.80853632
O       0.30707695     0.53006395     1.96854718    -0.89841757    -2.30273535     2.87155126
O       5.68306110     4.36629859     6.59500605     0.89841757     2.30273535    -2.87155126
O       2.33546561     0.53010961     6.25035126    -1.22081448     3.00212298    -2.80767423
O       3.65467243     4.36625289     2.31320206     1.22081448    -3.00212298     2.80767423
