# total energy = -4990.19607757 eV

CRYSTAL
PRIMVEC
        3.06842593     0.00000000     0.00000000
        0.00000000     4.34988148     0.00000000
        0.00000000    -0.00005950     4.59029802
PRIMCOORD
6 1
Ti      1.53421296     2.17491083     2.29514901     0.00000000     0.00000000     0.00000000
Ti      0.00000000     0.00000000     0.00000000     0.00000000     0.00000000     0.00000000
O       1.53421296     0.84771617     0.89458147     0.00000000     0.11955326     0.01392253
O       1.53421296     3.50210544     3.69571651     0.00000000    -0.11955326    -0.01392253
O       0.00000000     1.32717055     3.18973141     0.00000000    -0.11961779     0.01391867
O       0.00000000     3.02265111     1.40056656     0.00000000     0.11961779    -0.01391867
