# total energy = -19960.44095906 eV

CRYSTAL
PRIMVEC
        5.93400000     0.00000000     0.00000000
        0.00000000     9.29699974     0.00000000
        0.00000000     0.00000000     4.64899994
PRIMCOORD
24 1
Ti      4.41813102     6.87743498     2.40620298     0.96467364     0.25523505    -1.10850069
Ti      4.43998102     2.38093900     2.33192698    -0.03966314    -0.21581771     0.21307845
Ti      1.51519899     7.00191298     2.31867601    -0.76997678     0.31313426    -0.91961169
Ti      1.45452601     2.40793202     2.32551499     0.24510233    -0.32670891    -0.35646842
Ti      2.94494998     4.63599298     4.60835199     1.12907363     1.61200463     0.89676615
Ti      3.00990998     0.03088099     4.62628797    -0.00819334    -1.23589041     0.51295095
Ti      0.02204600     4.67080898     0.01021402    -0.77457083     1.90027965     0.22643457
Ti      0.00426300     9.26350701     4.63240399     0.23398770    -1.23241711     0.48354678
O       4.37171900     5.52651500     0.91181299     0.67904994     0.11372791    -0.01531890
O       4.50005698     0.91092201     0.83695198    -0.66978419     0.24155857     0.25312494
O       1.54591498     5.61058798     0.90516599    -0.51335256    -0.57300243    -0.24593948
O       1.51040702     0.89902801     0.84171801    -0.14649791     0.43349021     0.49075230
O       4.42823498     8.23836298     3.71855701    -0.04815601     1.51059874     1.20116611
O       4.49594400     3.73441502     3.82586399    -0.39162184    -0.92923894    -1.38189159
O       1.46061801     8.24153498     3.76491299     0.13753659     1.45187215     0.49278527
O       1.49958598     3.84610402     3.76448398    -0.46366777    -2.49600448    -1.54085935
O       2.87615000     6.08397698     3.23526101     0.53507865    -0.65257733     0.10990493
O       3.04385702     1.43499900     3.18676901    -0.99842863     0.22440468    -0.15113284
O       0.05414399     5.91199798     3.22250302    -0.56161887     0.95330601    -0.52577048
O       5.86165697     1.31854000     3.26222201     0.88634366     1.67670750    -1.58123032
O       3.03109702     7.83019698     1.33002198    -0.67977576     0.37116973     0.74643729
O       2.97251498     3.24260297     1.33421502    -0.62082240    -1.08246851     1.52465446
O       5.80306800     7.91721499     1.52737298     0.99185021    -0.22096249    -0.67835265
O       5.91697701     3.38755298     1.45409701     0.88343369    -2.09240104     1.35347343
