# total energy = -39031.58435997 eV

CRYSTAL
PRIMVEC
        5.93200024     0.00000000     0.00000000
        0.00000000     9.29399984     0.00000000
        0.00000000     0.00000000     9.29399984
PRIMCOORD
46 1
Ti      4.35500002     6.70505798     7.02257698     2.09569539     0.99316224    -0.50186435
Ti      4.37603698     7.09420303     2.22870201     1.60743707     0.07498805    -1.34221559
Ti      4.50808502     2.53119999     6.56917500     1.42713813     1.11483100     0.90617228
Ti      4.63198298     2.01399300     2.47496999    -0.89156326     0.85675977     0.79062454
Ti      1.56963799     7.12676902     6.97746002    -1.65758285    -0.13614768    -0.55140824
Ti      1.45898100     6.84557899     2.48419900    -2.08356261     0.87106102    -1.41392240
Ti      1.58961200     2.18201598     7.23371902    -0.18206862     0.08460449    -0.48035090
Ti      1.70570100     2.64141999     2.06938002     1.15000268    -1.75778161     1.01733216
Ti      2.80732802     4.69983202     4.69386899    -0.45337590    -0.41595785     0.97563065
Ti      2.96769799     4.82699400     9.02585398     0.22264707    -2.73044958     1.35540844
Ti      3.00289298     9.22930702     4.53128499    -1.61816885     0.61364516     0.33300581
Ti      2.96963800     0.04642102     9.28634201    -0.36118948     0.12426480    -0.97758958
Ti      5.81946800     4.63644998     4.60224798     0.81312762    -0.28875839     0.71870510
Ti      5.90409302     4.73057299     9.28269698     0.17616306     0.30189442    -0.70314864
Ti      5.91151902     9.16904299     5.08794300     1.15560666    -0.85692946    -0.36353150
Ti      5.86714401     0.09216998     9.15906102     0.48466161    -0.54135291    -0.95856829
O       4.34513298     5.26810701     5.73408298     0.14511492     2.02073331     0.49719471
O       4.35106701     5.74104399     0.63610900     0.48993494    -1.11806596     1.65191511
O       4.47552601     0.81887301     5.63746098    -0.87501332     1.11767001     0.03301143
O       4.46070900     0.86426599     1.03451702     0.20538237    -0.14439629    -0.08207607
O       1.38438097     5.67939002     5.77303402     0.86224033    -1.79246555    -2.81701223
O       1.54429400     5.45114402     0.80857098    -0.23024932    -0.15176739     2.11135882
O       1.46187501     0.75763201     5.69774601     0.76402698     0.11767686    -0.91524107
O       1.34976098     1.00485002     0.78557802     0.86376603     0.19039463     0.57686166
O       4.43234203     8.37327598     8.32773599    -0.01871172     0.23648681     0.71260670
O       4.53321602     8.45424301     3.91432401     0.31944812    -0.82387175    -2.76274547
O       4.42840997     3.95288198     8.09174299     0.29166271    -0.22550203     1.03233713
O       4.47639698     3.42194501     4.26451298    -0.74544921    -0.93413123    -2.29635901
O       1.40754301     8.72393100     7.86682901     0.03624948     0.23228254     3.03464282
O       1.63792302     8.07585498     3.95199799    -1.24037699     0.99166817    -0.62885299
O       1.52964600     3.50578600     8.58754302    -0.01718757     0.81769081     0.70544618
O       1.43587902     4.03114301     3.52747401     0.62698868    -1.43426498     0.54378338
O       2.86631001     6.27699502     8.08375702    -0.61381665     1.56826655    -1.63508158
O       2.87376701     5.97413598     3.18383001     2.27330418    -0.07524182     0.16183095
O       3.15050502     1.45164898     8.03324901    -0.21066933     0.51687549    -0.85165304
O       2.81957000     1.38054200     3.24448801     0.22720281     0.55926348    -0.46352611
O       0.27529600     6.01160501     8.04079799    -1.26095096     0.46974792    -0.55058086
O       5.65197298     5.94486899     3.01615898     1.02178146    -0.17651298     1.58848520
O       5.82607298     1.57935898     7.76540198    -0.77856761    -0.62958215     0.80807745
O       3.11276198     7.66595502     6.01224198     0.43948448     0.29603101     0.30463213
O       2.88622803     7.98704099     1.41817497    -0.49248162    -0.88753203     0.70151033
O       2.81410699     3.18113300     6.13994700    -0.35108941     0.13645081    -0.62524007
O       5.76459999     7.68816099     6.08457199     0.29145933    -0.13142276     0.33936492
O       0.03313798     7.68947398     1.31406602    -0.47972278     1.40855085     0.43886690
O       0.26703200     3.35539102     6.00687602    -0.78839360    -1.26438647     0.78349744
O       0.03744199     3.10940700     1.72241400    -2.64033444     0.80152037    -1.20133503
