# total energy = -19957.41935299 eV

CRYSTAL
PRIMVEC
        5.48629765     0.00000000     0.00000000
        0.00003007     5.83907979     0.00000000
        0.00000000     0.00000000     9.81926644
PRIMCOORD
24 1
Ti      1.98853684     3.46023328     3.64287788     0.02150986    -0.44673165     0.37647803
Ti      3.49779088     2.37884656     6.17638883    -0.02150986     0.44673165    -0.37647803
Ti      4.73158963     2.37884857     1.26671624     0.02309289     0.44704867    -0.37664927
Ti      0.75473810     3.46023150     8.55255059    -0.02309289    -0.44704867     0.37664927
Ti      1.98852192     0.54069350     1.26675561     0.02150986    -0.44673165    -0.37647803
Ti      3.49780580     5.29838651     8.55251121    -0.02150986     0.44673165     0.37647803
Ti      0.75472318     0.54069132     6.17634946    -0.02309289    -0.44704867    -0.37664927
Ti      4.73160455     5.29838869     3.64291726     0.02309289     0.44704867     0.37664927
O       1.73645843     2.05603931     5.01069661     0.76165848     0.68545481     0.04460583
O       3.74986929     3.78304059     4.80857011    -0.76165848    -0.68545481    -0.04460583
O       1.00674365     2.05606283     0.10109485    -0.76102265     0.68489509     0.04389363
O       4.47958413     3.78301707     9.71817158     0.76102265    -0.68489509    -0.04389363
O       3.74985437     0.86350064     0.10106299    -0.76165848    -0.68545481     0.04460583
O       1.73647336     4.97557920     9.71820344     0.76165848     0.68545481    -0.04460583
O       4.47956921     0.86347712     5.01072847     0.76102265    -0.68489509     0.04389363
O       1.00675846     4.97560278     4.80853825    -0.76102265     0.68489509    -0.04389363
O       0.19934815     3.55165934     2.65242889     0.26464683    -0.15590378     0.18287235
O       5.28697957     2.28742050     7.16683782    -0.26464683     0.15590378    -0.18287235
O       2.94250138     2.28736608     2.25723568     0.26498185     0.15599711    -0.18299114
O       2.54382635     3.55171376     7.56203087    -0.26498185    -0.15599711     0.18299114
O       0.19933323     0.63211939     2.25720432     0.26464683    -0.15590378    -0.18287235
O       5.28699450     5.20696045     7.56206223    -0.26464683     0.15590378     0.18287235
O       2.54381143     0.63217381     7.16686912    -0.26498185    -0.15599711    -0.18299114
O       2.94251630     5.20690603     2.65239754     0.26498185     0.15599711     0.18299114
