# total energy = -19073.67594854 eV

CRYSTAL
PRIMVEC
        7.60600008     0.00000000     0.00000000
        0.00000000     7.60600008     0.00000000
       -1.89786986    -1.89786986     4.85670466
PRIMCOORD
22 1
Ti      3.80914998     6.45053198     1.11070500    -1.02162873     1.80844496     0.63038254
Ti      3.76757099     2.85620299     1.23823799    -0.35209985    -0.27990016    -0.79945911
Ti      0.00136300     6.75421998     1.21754298     1.16079540     0.39228595    -0.07229816
Ti     -0.08193500     3.00524798     1.20671400     0.71602241    -1.76425436     1.40748770
Ti      5.72038924     2.89903824     3.70751382     0.92133408     0.33554708    -1.01472198
Ti      5.83028221    -0.93237878     3.65490683    -0.40629924    -1.04834893     0.10263205
Ti      1.96895022     2.85602423     3.63567181    -0.97773433    -1.07967244    -1.43225540
Ti      1.89324925    -1.03127475     3.81823479    -0.27047912     1.10912058    -4.04802885
O       3.50423302     4.75229497     0.62494500     0.97935053    -1.19615400     1.36420419
O       3.65366299     0.84238599     0.66364299     0.55245905     0.37622118     4.10969164
O       0.07403301     4.83709002     0.83056698    -0.32744116    -0.71790318    -0.93089833
O      -0.08341998     1.00321402     0.95743098     0.33374268    -0.93037768    -1.31435819
O       5.78972723     4.72132821     3.76106280     0.50982064     0.53728157     2.05660150
O       5.76712322     0.85683624     3.75861482    -0.39760480     1.65821072     1.48184017
O       1.83034224     4.67748921     4.00907780     0.38725919     0.99468742    -0.56145535
O       1.75095825     0.91768823     4.22425784     1.20026262    -0.28103608    -2.19620988
O       3.87917722     3.16963621     3.29000180    -0.61427637    -1.60962816    -0.42733756
O       0.09925121     2.77111922     3.27966581    -1.35145048     0.55063923    -1.92399269
O       5.51372097     6.24614499     1.80904699     1.54325331     1.55975028    -0.26914164
O       5.69242202     2.83405602     1.44840698     0.45950901     0.45289305     0.73879725
O       1.99299800     6.67299900     1.58155702    -1.92107320     0.04576591     1.77249732
O       1.96569901     2.98577902     1.51488900    -1.12372214    -0.91357320     1.32602304
