# total energy = -19960.24182348 eV

CRYSTAL
PRIMVEC
        7.60600008     0.00000000     0.00000000
        0.00000000     7.60600008     0.00000000
       -1.89786986    -1.89786986     4.85670466
PRIMCOORD
24 1
Ti      3.91759898     6.70014701     1.15419702    -0.74188592    -1.95358558     0.06750999
Ti      3.81380103     2.72292599     1.15593902    -0.91303712     2.05638938     1.46692931
Ti     -0.01734098     6.62191000     1.17939602     0.55787869     1.20279799    -0.50379448
Ti     -0.11849602     2.90881998     1.32161198     1.53463008    -1.37155960     0.48171410
Ti      5.65775720     2.77218424     3.70804284     0.41475637     1.21738515    -0.10386206
Ti      5.68817023    -0.90047177     3.62660082     0.82710388    -1.17201441     1.14838340
Ti      2.01285024     2.82386925     3.70112781    -1.10540328    -0.24673986    -1.90294332
Ti      2.01394320    -0.94524778     3.64805080    -0.54228314    -0.14855248    -2.86938150
O       3.91004202     4.77804199     0.66303602    -0.18518429    -1.55820042     3.07467954
O       3.90894403     0.93004801     0.69655998     0.00442590    -0.22236734     0.22911109
O      -0.28832000     4.70443200     0.86422000     0.84987795     1.03688567    -0.66844619
O      -0.07585999     1.02068602     0.80527998     0.20932079    -0.67533006    -0.57294561
O       5.41827322     4.78749225     3.98443979     0.65674047     0.05481851     0.96556992
O       5.64481125     0.96012724     4.02728182     0.35971109     0.14123512     0.75773215
O       2.06054123     4.61356020     4.04682380    -0.08943046     3.94697315    -0.77609395
O       1.79827024     0.86604122     4.07576080    -0.00855869    -0.03068330    -0.44136807
O       3.76837523     2.76770121     3.08032183     0.39859339    -0.38507401     1.02177452
O       3.91293222    -0.65029280     3.07525083    -2.46104697    -0.70318412     0.86996367
O      -0.12296576     2.97200025     3.36215883     0.58993058    -0.23711673    -0.32823641
O      -0.06782179    -1.01054275     3.09970781     1.50604686    -0.11501423     1.07426206
O       5.73894802     6.72430098     1.57259699    -0.74498436     0.00718521    -0.13925743
O       5.68844202     2.80927502     1.75343803    -1.36299448    -0.27659630    -1.27063065
O       1.93492100     6.76075701     1.57673997     0.01476585    -0.65551739     0.37485747
O       1.81911099     2.80531402     1.78116998     0.23102682     0.08786620    -1.95552754
