# total energy = -19892.39557067 eV

CRYSTAL
PRIMVEC
        7.16712313     0.00000000     0.00000000
        0.00002257     2.89337421     0.00000000
        0.00000000     0.00000000    11.09291965
PRIMCOORD
24 1
Ti      2.59775089     1.71461084     4.11539409    -0.93085796     0.58853859    -0.59662085
Ti      4.56939501     1.17876327     6.97752567     0.93085796    -0.58853859     0.59662085
Ti      6.18119013     1.17876425     1.43102147    -0.92842904    -0.58880315     0.59922075
Ti      0.98595577     1.71461000     9.66189839     0.92842904     0.58880315    -0.59922075
Ti      2.59773970     0.26792378     1.43106594    -0.93052295     0.58686583     0.59709882
Ti      4.56940619     2.62545042     9.66185392     0.93052295    -0.58686583    -0.59709882
Ti      0.98594459     0.26792275     6.97748119     0.92868383     0.58728440     0.59785010
Ti      6.18120131     2.62545146     4.11543856    -0.92868383    -0.58728440    -0.59785010
O       2.26844776     1.01880622     5.66063198     7.54996727    -1.21916589     3.38214965
O       4.89869818     1.87456788     5.43228778    -7.54996727     1.21916589    -3.38214965
O       1.31517176     1.01881788     0.11420783    -7.54913269    -1.21941040     3.38146651
O       5.85197424     1.87455623    10.97871162     7.54913269     1.21941040    -3.38146651
O       4.89868700     0.42788078     0.11417185    -7.54894989     1.21908773     3.38166731
O       2.26845889     2.46549333    10.97874761     7.54894989    -1.21908773    -3.38166731
O       5.85196306     0.42786912     5.66066801     7.54919877     1.21978476     3.38316370
O       1.31518279     2.46550503     5.43225175    -7.54919877    -1.21978476    -3.38316370
O       0.26041190     1.75991420     2.99647433     2.05562062    -0.82903118     2.02413488
O       6.90673399     1.13345990     8.09644543    -2.05562062     0.82903118    -2.02413488
O       3.84398291     1.13343301     2.55002077     2.05644209     0.82939705    -2.02929457
O       3.32316304     1.75994114     8.54289878    -2.05644209    -0.82939705     2.02929457
O       0.26040072     0.31322710     2.54998535     2.05461481    -0.82857173    -2.02965633
O       6.90674517     2.58014701     8.54293421    -2.05461481     0.82857173     2.02965633
O       3.32315186     0.31325399     8.09648075    -2.05662875    -0.82887049    -2.02423798
O       3.84399409     2.58012011     2.99643895     2.05662875     0.82887049     2.02423798
