# total energy = -19940.88101843 eV

CRYSTAL
PRIMVEC
        6.66636917     0.00000000     0.00000000
        0.00002816     5.24415468     0.00000000
        0.00000000     0.00000000    10.61388667
PRIMCOORD
24 1
Ti      2.41625490     3.10768125     3.93767625     0.40774086    -0.33497553     0.53920527
Ti      4.25014249     2.13647361     6.67621048    -0.40774086     0.33497553    -0.53920527
Ti      5.74932435     2.13647543     1.36922470     0.40854870     0.33501281    -0.53921093
Ti      0.91707304     3.10767966     9.24466214    -0.40854870    -0.33501281     0.53921093
Ti      2.41624094     0.48560403     1.36926726     0.40768275    -0.34998075    -0.53893608
Ti      4.25015645     4.75855100     9.24461959    -0.40768275     0.34998075     0.53893608
Ti      0.91705908     0.48560202     6.67616792    -0.40880735    -0.35019287    -0.53896024
Ti      5.74933831     4.75855301     3.93771881     0.40880735     0.35019287     0.53896024
O       2.10995789     1.84655604     5.41618513     0.88807684     0.98623466    -0.69416263
O       4.55643956     3.39759881     5.19770160    -0.88807684    -0.98623466     0.69416263
O       1.22328557     1.84657720     0.10927593    -0.88741813     0.98637118    -0.69515842
O       5.44311194     3.39757771    10.50461050     0.88741813    -0.98637118     0.69515842
O       4.55642560     0.77552141     0.10924150    -0.88846097    -0.98702142    -0.69468405
O       2.10997185     4.46863344    10.50464493     0.88846097     0.98702142     0.69468405
O       5.44309797     0.77550032     5.41621956     0.88724946    -0.98628737    -0.69508617
O       1.22329942     4.46865460     5.19766717    -0.88724946     0.98628737     0.69508617
O       0.24222175     3.18979214     2.86707558    -1.10574703     0.18843288     0.19631537
O       6.42417570     2.05436271     7.74681114     1.10574703    -0.18843288    -0.19631537
O       3.57541352     2.05431380     2.43990153    -1.10573418    -0.18809246    -0.19728108
O       3.09098393     3.18984111     8.17398502     1.10573418     0.18809246     0.19728108
O       0.24220779     0.56771480     2.43986763    -1.10642478     0.18813566    -0.19724122
O       6.42418966     4.67644011     8.17401892     1.10642478    -0.18813566     0.19724122
O       3.09096996     0.56776372     7.74684499     1.10540636     0.18799656    -0.19644958
O       3.57542749     4.67639114     2.86704168    -1.10540636    -0.18799656     0.19644958
