# total energy = -4990.36967771 eV

CRYSTAL
PRIMVEC
        2.95290096     0.00000000     0.00000000
        0.23119342     4.62097326     0.00000000
       -0.00000128    -0.00006005     4.62820068
PRIMCOORD
6 1
Ti      1.59204644     2.31045645     2.31410024     0.00000000     0.00000000     0.00000000
Ti      0.00000000     0.00000000     0.00000000     0.00000000     0.00000000     0.00000000
O       1.52150634     0.90054781     0.90196808    -0.26608048     0.08176214     0.07851124
O       1.66258649     3.72036509     3.72623234     0.26608048    -0.08176214    -0.07851124
O       0.07053947     1.40988430     3.21606926     0.26587890    -0.08158628     0.07829963
O       0.16065256     3.21102881     1.41213116    -0.26587890     0.08158628    -0.07829963
