# total energy = -19073.18638191 eV

CRYSTAL
PRIMVEC
        7.60600008     0.00000000     0.00000000
        0.00000000     7.60600008     0.00000000
       -1.89786986    -1.89786986     4.85670466
PRIMCOORD
22 1
Ti      3.67027101     7.05173099     0.99271800     0.40309719    -1.27741708     1.55450883
Ti      3.88885598     2.86470099     1.29143999    -0.01522634     0.63287599     4.08520702
Ti     -0.05440201     6.75204199     1.24377800    -0.35513144    -1.24504843     1.99195391
Ti     -0.00545201     2.69266600     1.47878900    -1.11568178     2.13184692    -2.25348174
Ti      6.00048223     2.89207723     3.85328580    -2.27888451    -1.01054702    -0.22890051
Ti      5.65145422    -0.95440678     3.65388482     1.12709080     1.86824730    -0.62546556
Ti      1.87622223     2.72212423     3.92634083     3.84452442     1.36531568     0.23118983
Ti      1.93791721    -0.77397475     3.57369579    -1.96211754    -1.77127913    -0.38304001
O       3.63858398     4.69194300     0.97043202    -0.23518044     0.20522630    -0.80906887
O       3.10832499     1.17480202     0.60045700     0.59200032    -0.73777267     2.38708377
O      -0.00038402     4.82007798     0.94738698     0.30927889     0.81709535     0.01867162
O      -0.27559398     1.05979000     0.81397600     0.72108903    -3.53246205     0.32031972
O      -1.43534080     4.84737622     3.94609783    -1.49749511    -1.22944337     1.54832481
O       5.39482024     0.94168621     4.37639079     1.25614660     0.81179476    -1.82396054
O       2.00039722     4.89784523     4.05941283    -0.18820276    -0.25886879    -0.56693129
O       2.37468524     0.81695723     4.37367982     1.35677113     2.24659504    -3.41244523
O       3.68699322     3.03319420     3.28102780    -0.77499017    -0.90786766    -0.50717754
O       0.15599124     2.29924123     3.46197282    -0.84284007     0.38957190    -0.15131231
O       5.51481298     6.89166102     1.62396502    -0.39496556     0.03987962     0.25506870
O       5.76009198     2.86218200     1.87677300    -0.20970337    -0.01219166     0.89619768
O       1.90319799     6.70717501     1.67325899    -0.09205170     0.52341946    -0.17758333
O      -0.06905477    -0.81861577     3.33527583     0.35247241     0.95102956    -2.34915869
