# total energy = -19518.03732629 eV

CRYSTAL
PRIMVEC
        5.93400000     0.00000000     0.00000000
        0.00000000     9.29699974     0.00000000
        0.00000000     0.00000000     4.64899994
PRIMCOORD
23 1
Ti      4.46142100     7.07979501     2.23495397     0.94383767     0.50737423    -0.00818331
Ti      4.47690298     2.31167298     2.36257200    -0.29761944    -1.03158405     0.00646298
Ti      1.42409901     7.02622597     2.23506500    -0.66340271     0.75252027     0.15950616
Ti      1.46039199     2.26957100     2.34949698     0.50968411    -0.56322812     0.13884322
Ti      2.96167500     4.46458898     0.20110498     0.17944970     0.30014041     0.35662602
Ti      2.95666898     0.00634198     4.59695198     0.40258451    -0.58191568    -0.67034109
Ti      0.00951900     4.58523102     4.61944502    -0.04657041     0.63315804    -0.04605619
Ti      0.02017800     0.13096698     0.02402200    -0.41981271    -1.21930036     0.36351401
O       4.46569199     5.55151201     0.90853299    -0.38545222     0.36014355     0.17373645
O       4.34116701     0.86395600     0.97001698     1.15763963     0.95694387     0.55111822
O       1.52995102     5.49511198     0.94257999    -0.06457122     0.42037784    -0.19390830
O       1.61184501     0.93613498     0.88919998    -1.42609606     0.50474245     0.79464935
O       4.49910001     8.53176499     3.72900402    -0.25687850    -1.57490283    -1.19091434
O       4.41464200     3.77350100     3.77996400     0.37747794    -0.22785253    -0.87901525
O       1.35373002     8.39105200     3.66856198     0.93155807    -0.02186364     0.12495000
O       1.53493201     3.63390098     3.78350901    -0.25079527     1.10579717    -0.10467633
O       2.95127100     1.45181001     3.30250499     0.36552564     0.30919121    -0.76042975
O       0.01295098     6.13466402     3.15338401    -0.39127602    -0.77583170     0.37993720
O       0.00967400     1.36210600     3.29338198    -0.03523724     1.68611594    -1.25916533
O       2.92990700     7.89164102     1.21878300     0.28445770    -1.56109163     1.73078604
O       3.01901601     3.15675899     1.43747502    -0.27518784     0.41013893     0.12006491
O       5.92886301     7.96121698     1.38611101    -0.14648094    -0.16611647    -0.09213243
O       0.04853503     3.22583599     1.39020901    -0.49283438    -0.22295715     0.30462776
