# total energy = -19954.56939027 eV

CRYSTAL
PRIMVEC
        5.08563368     0.00000000     0.00000000
        1.33237122     5.24610233     0.00000000
        0.00000000     0.00000000     9.17523524
PRIMCOORD
24 1
Ti      2.63285961     3.10883554     3.40394701     1.64658290    -1.73704154     0.87486805
Ti      3.78514543     2.13726714     5.77128875    -1.64658290     1.73704154    -0.87486805
Ti      4.92884038     2.13726895     1.18363424    -2.99425900    -0.31351452     1.28812959
Ti      1.48916469     3.10883393     7.99160162     2.99425900     0.31351452    -1.28812959
Ti      1.96667411     0.48578441     1.18367103     1.64658290    -1.73704154    -0.87486805
Ti      4.45133096     4.76031847     7.99156483    -1.64658290     1.73704154     0.87486805
Ti      0.82297909     0.48578240     5.77125196     2.99425900     0.31351452     1.28812959
Ti      5.59502597     4.76032043     3.40398379    -2.99425900    -0.31351452    -1.28812959
O       2.07878573     1.84724193     4.68205253    -0.16762853     0.46292215    -0.76675904
O       4.33921926     3.39886075     4.49318323     0.16762853    -0.46292215     0.76675904
O       1.40236737     1.84726310     0.09446422     0.69946965    -0.72505290     0.19830643
O       5.01563773     3.39883967     9.08077128    -0.69946965     0.72505290    -0.19830643
O       3.67303374     0.77580947     0.09443445     0.16762853    -0.46292215    -0.76675904
O       2.74497130     4.47029320     9.08080105    -0.16762853     0.46292215     0.76675904
O       4.34945221     0.77578834     4.68208230    -0.69946965     0.72505290     0.19830643
O       2.06855279     4.47031439     4.49315346     0.69946965    -0.72505290    -0.19830643
O       0.99519653     3.19097694     2.47846008    -0.24474391    -0.38476573    -0.65973220
O       5.42280845     2.05512574     6.69677567     0.24474391     0.38476573     0.65973220
O       3.24953494     2.05507682     2.10918700     1.13315655    -0.79312211    -1.18694816
O       3.16847011     3.19102591     7.06604860    -1.13315655     0.79312211     1.18694816
O       0.32901102     0.56792566     2.10915769    -0.24474391    -0.38476573     0.65973220
O       6.08899403     4.67817706     7.06607791     0.24474391     0.38476573    -0.65973220
O       2.50228458     0.56797458     6.69680492    -1.13315655     0.79312211    -1.18694816
O       3.91572046     4.67812810     2.47843078     1.13315655    -0.79312211     1.18694816
