# total energy = -19516.63067875 eV

CRYSTAL
PRIMVEC
        5.93400000     0.00000000     0.00000000
        0.00000000     9.29699974     0.00000000
        0.00000000     0.00000000     4.64899994
PRIMCOORD
23 1
Ti      4.38643701     7.04559000     2.13758901    -0.40396082     1.72129738     0.38039897
Ti      4.49569200     2.33345497     2.22029799     0.24239264    -0.23224578     1.06729154
Ti      1.30308702     6.96659802     2.33516702    -0.30245029     0.75763085     0.18286515
Ti      1.57758602     2.32463301     2.50286001    -0.55818285    -0.92083014    -0.31475739
Ti      2.95243001     4.60177802     0.22130500     0.70023455    -1.31443070    -0.71293812
Ti      3.00263501     0.16908197     0.00409001    -0.35236571    -1.86897389     0.31781392
Ti      5.91896602     4.57274402     0.13176598    -0.63087336    -1.11165312    -2.34139010
Ti      0.06351598     9.26101998     4.43283501    -0.88559187    -0.40864717     0.49721348
O       4.50237699     5.51050802     0.87005403    -1.26048559     0.95612574     0.66694441
O       4.37742401     0.84348599     0.93486199     2.31857875     1.48767915     0.55769974
O       1.45698499     5.41501201     0.89150401     0.45177256     2.42085933     0.78746877
O       1.66334099     0.93394699     0.95768599    -2.12321315     0.31908688    -0.40291567
O       4.38757897     8.40504799     3.67878600     1.14824250    -0.43821821    -0.50488489
O       4.49517701     3.75705798     3.63855800    -0.29658457    -0.04661669     1.01225140
O       1.51324500     8.37764000     3.65770199    -0.31584446    -0.74305423    -0.13694240
O       1.49298598     3.53841401     3.91292201     0.10785062     1.16020148    -0.29712553
O       3.06247802     1.47380500     3.35977599     0.12902777     1.18881889    -1.96615391
O       5.75441698     6.15583799     3.24769101     1.39125375    -0.32439826    -0.48776648
O       0.09656802     1.19478603     3.01450901    -0.86523207     0.97781995     0.83800639
O       2.93305302     7.95160802     1.23401002     0.25529341    -2.72284785     2.12665560
O       2.91358702     3.27260600     1.52720300     1.03536152     0.13333412    -0.62123712
O       5.91158300     7.88422502     1.37642601     0.32679942    -0.02299673    -0.78428446
O       0.03795799     3.33730401     1.51772898    -0.11202249    -0.96794048     0.13578695
