# total energy = -4857.78516455 eV

CRYSTAL
PRIMVEC
        4.99068143     0.00000000     0.00000000
       -0.00000647     1.89301683     0.00000000
       -2.49537064    -0.94659827     5.50791843
PRIMCOORD
6 1
Ti     -0.00021324     1.41981620     1.37697937    -0.07093625    -0.06167873   126.84228373
Ti      2.49551761    -0.47339788     4.13093863     0.07093625     0.06167873  -126.84228373
O       0.00005298     0.47323914     0.89719483     0.07017700     0.06250868  -118.81892426
O       2.49525124     0.47317913     4.61072322    -0.07017700    -0.06250868   118.81892426
O      -0.00002163    -0.47329128     3.65115405    -0.00036098    -0.00009256     0.55452391
O       2.49532576     1.41970951     1.85676400     0.00036098     0.00009256    -0.55452391
