# total energy = -19960.33313173 eV

CRYSTAL
PRIMVEC
        5.93400000     0.00000000     0.00000000
        0.00000000     9.29699974     0.00000000
        0.00000000     0.00000000     4.64899994
PRIMCOORD
24 1
Ti      4.45568700     6.85391999     2.36330401     0.14053192     1.06918490    -0.21813427
Ti      4.45265698     2.37670902     2.32897200     0.43308655    -0.78733610     0.32190095
Ti      1.44046101     6.90080499     2.23671799    -0.15242354     1.12862935     0.21403182
Ti      1.56263798     2.45016401     2.33118200    -0.21025307    -0.97864939     0.48655369
Ti      3.00649700     4.72523899     4.52639900    -0.91548430    -0.18256048     0.79675020
Ti      2.97825100     9.21098198     0.05296800    -0.80300389    -0.25587037    -0.56280415
Ti      5.90392400     4.62880400     0.02618401     0.78367819     0.34147811    -0.00416005
Ti      5.91453401     0.05494701     0.05030698     0.40019338    -0.16891948    -0.43971742
O       4.43986301     5.65918799     0.82460199    -0.42406197    -0.40518955    -0.25149178
O       4.38679701     0.98071002     0.99433898     0.55680062    -1.14927120    -1.26928160
O       1.43559702     5.64057699     0.74259999     0.60327667    -0.45272001     0.31327130
O       1.50289699     0.87840698     0.93363901    -0.28778703    -0.13142610    -0.44787991
O       4.47581198     8.34028702     3.80961100    -0.09515682     0.39235203     0.42607875
O       4.42421598     3.72572101     3.78609002    -0.04210157     0.05578473    -0.07516109
O       1.53456301     8.22590498     3.63442999    -0.05225203     1.87303032     2.36895594
O       1.39410302     3.65382000     3.82097799     0.85596478     0.20753952    -0.53892631
O       2.90976901     5.91074499     3.06291698     0.75687494    -0.68280066     0.85838059
O       2.91003799     1.39107999     3.28150099     0.07891747     0.93216408    -0.78383323
O       0.01445098     6.02948199     3.25172599    -0.42589260    -0.21179316    -0.76043490
O       0.00399301     1.45170100     3.19473900    -0.04817761    -0.28096923     0.51662198
O       3.00754800     7.86516798     1.63705099     0.19249419     0.87927390    -2.06194400
O       3.05401399     3.45929000     1.50582699    -1.11913709    -1.27974573     0.23533933
O       0.01777300     7.82525102     1.39297698    -0.66972557     0.50030009    -0.03023413
O       5.87988798     3.30018497     1.38517601     0.44363810    -0.41248583     0.90611854
