# total energy = -19901.31524917 eV

CRYSTAL
PRIMVEC
        6.75142124     0.00000000     0.00000000
        2.10826465     6.86930874     0.00000000
        0.00000000     0.00000000    12.22492304
PRIMCOORD
24 1
Ti      3.69642112     4.07074603     4.53535926    -0.35238036    -1.80652614     0.54932668
Ti      5.16326465     2.79856286     7.68956385     0.35238036     1.80652614    -0.54932668
Ti      6.68157435     2.79856523     1.57705345     0.24114643    -0.63527946    -0.17179681
Ti      2.17811154     4.07074393    10.64786979    -0.24114643     0.63527946     0.17179681
Ti      2.64228895     0.63609178     1.57710247    -0.35238036    -1.80652614    -0.54932668
Ti      6.21739686     6.23321732    10.64782077     0.35238036     1.80652614     0.54932668
Ti      1.12397923     0.63608921     7.68951484    -0.24114643     0.63527946    -0.17179681
Ti      7.73570658     6.23321989     4.53540827     0.24114643    -0.63527946     0.17179681
O       2.87922324     2.41880043     6.23828466     1.76957886     1.96391422    -0.62973565
O       5.98046255     4.45050853     5.98663845    -1.76957886    -1.96391422     0.62973565
O       1.98124696     2.41882815     0.12586246    -0.63316833    -0.11330213     1.11109750
O       6.87843890     4.45048088    12.09906031     0.63316833     0.11330213    -1.11109750
O       4.92633035     1.01585407     0.12582280    -1.76957886    -1.96391422    -0.62973565
O       3.93335544     5.85345489    12.09909997     1.76957886     1.96391422     0.62973565
O       5.82430670     1.01582642     6.23832432     0.63316833     0.11330213     1.11109750
O       3.03537903     5.85348263     5.98659879    -0.63316833    -0.11330213    -1.11109750
O       1.52766083     4.17830303     3.30225670     0.55028262     1.95177039     1.98613242
O       7.33202496     2.69100593     8.92266641    -0.55028262    -1.95177039    -1.98613242
O       4.44689767     2.69094188     2.81024373     0.54820105     1.83309105     1.14958256
O       4.41278812     4.17836709     9.41467917    -0.54820105    -1.83309105    -1.14958256
O       0.47352856     0.74364858     2.81020468     0.55028262     1.95177039    -1.98613242
O       8.38615716     6.12566039     9.41471822    -0.55028262    -1.95177039     1.98613242
O       3.35865592     0.74371263     8.92270539    -0.54820105    -1.83309105     1.14958256
O       5.50102987     6.12559634     3.30221765     0.54820105     1.83309105    -1.14958256
