# total energy = -19915.14262146 eV

CRYSTAL
PRIMVEC
        7.57730180     0.00000000     0.00000000
        0.00002982     5.37636026     0.00000000
        0.00000000     0.00000000    11.77231260
PRIMCOORD
24 1
Ti      2.74642525     3.18602609     4.36744401     0.56575912    -0.57063907     1.50236401
Ti      4.83090650     2.19033417     7.40486872    -0.56575912     0.57063907    -1.50236401
Ti      6.53494552     2.19033604     1.51866529     0.56547553     0.57059100    -1.50285972
Ti      1.04238622     3.18602447    10.25364750    -0.56547553    -0.57059100     1.50285972
Ti      2.74641034     0.49784609     1.51871249     0.56655230    -0.64266933    -1.50037038
Ti      4.83092141     4.87851436    10.25360031    -0.56655230     0.64266933     1.50037038
Ti      1.04237131     0.49784409     7.40482146    -0.56629905    -0.64272178    -1.50085195
Ti      6.53496043     4.87851636     4.36749120     0.56629905     0.64272178     1.50085195
O       2.39827442     1.89310787     6.00732103     0.76478289     1.42590117    -1.52433924
O       5.17905732     3.48325245     5.76499170    -0.76478289    -1.42590117     1.52433924
O       1.39044194     1.89312953     0.12120256    -0.76451112     1.42576439    -1.52469868
O       6.18688994     3.48323079    11.65110978     0.76451112    -1.42576439     1.52469868
O       5.17904248     0.79507226     0.12116434    -0.76410875    -1.42649639    -1.52311719
O       2.39828927     4.58128800    11.65114800     0.76410875     1.42649639     1.52311719
O       6.18687503     0.79505066     6.00735918     0.76402364    -1.42698284    -1.52422945
O       1.39045665     4.58130973     5.76495348    -0.76402364     1.42698284     1.52422945
O       0.27531919     3.27020708     3.17999535    -1.87745648     0.53981205     0.20358877
O       7.30201256     2.10615324     8.59231738     1.87745648    -0.53981205    -0.20358877
O       4.06397856     2.10610311     2.70619846    -1.87712480    -0.53981462    -0.20335737
O       3.51335319     3.27025721     9.06611407     1.87712480     0.53981462     0.20335737
O       0.27530428     0.58202688     2.70616082    -1.87757552     0.54009590    -0.20350263
O       7.30202747     4.79433337     9.06615165     1.87757552    -0.54009590     0.20350263
O       3.51333834     0.58207702     8.59235489     1.87737446     0.53957345    -0.20375666
O       4.06399341     4.79428330     3.17995777    -1.87737446    -0.53957345     0.20375666
