# total energy = -19519.01154978 eV

CRYSTAL
PRIMVEC
        7.60600008     0.00000000     0.00000000
        0.00000000     7.60600008     0.00000000
       -1.89786986    -1.89786986     4.85670466
PRIMCOORD
23 1
Ti      3.82529200     6.60660201     1.23433298     0.39562865     0.54353835     0.29709314
Ti      3.75120899     2.81713600     1.11561100     0.27256840    -0.23318732     1.08236978
Ti     -0.02408598     6.66732198     1.26029002    -0.25435059    -0.13401392    -0.43052958
Ti      0.04611198     2.88343699     1.06492900    -0.54460973     0.02153942     1.38862197
Ti      5.61456522     2.89092924     3.62739379    -1.25539738    -0.07999013     0.07975694
Ti      5.75328624    -1.00283677     3.68386780    -1.48583181     0.28579468     0.09319044
Ti      1.89107121     2.86033120     3.64351782     1.21856657    -0.83195787    -0.15828925
Ti      1.90267924    -0.98728779     3.65034982     0.99317124     0.62995110    -0.32664952
O       3.88291501     4.68846799     0.73242698    -0.72790349     0.75545544     0.99744570
O       4.05824102     0.97411398     0.69974902    -0.28890031    -0.85869504     0.62179556
O       0.06811501     4.79179599     0.76349799     0.76816261     0.55800004     0.72541131
O      -0.14804702     0.97813102     0.82260900     0.45279432    -0.92160301    -0.16352042
O       5.44708121     4.74498624     4.08276579     0.95564212     0.77397099     0.06241047
O       5.78750823     0.99301820     4.11485981     0.51607665    -0.33140092    -1.86249908
O       1.81696422     4.69577223     4.00105384    -0.22251106     0.71279285     0.18181331
O       1.75304622     0.93027223     4.04403382    -0.53759627     0.27425788     0.13873035
O       3.77594623     2.71211924     3.37507684     0.05805193     0.15225307    -1.25384109
O       3.85069622    -0.69472977     3.27797181    -0.33624540    -0.89805993    -0.96364339
O      -0.01298379    -0.94715780     3.27306279     0.40039264    -0.26478876    -0.28000481
O       5.71421099     6.52248199     1.64225900     0.07296485     0.16333993     0.35223072
O       5.82820101     3.02284498     1.77182302     0.09802926    -0.31183739    -0.36020937
O       1.98171398     6.79514099     1.64368000    -0.81676779    -0.49068931    -0.09541804
O       1.87121399     2.68874802     1.64782801     0.26806486     0.48533010    -0.12626512
