# total energy = -19899.03213371 eV

CRYSTAL
PRIMVEC
        8.51799450     0.00000000     0.00000000
        0.00002682     3.43872222     0.00000000
        0.00000000     0.00000000    13.18373174
PRIMCOORD
24 1
Ti      3.08737933     2.03778356     4.89107046     0.04855684    -0.02549918     2.28997573
Ti      5.43064224     1.40093854     8.29266139    -0.04855684     0.02549918    -2.28997573
Ti      7.34623120     1.40093972     1.70074279     0.04908212     0.02494177    -2.28980887
Ti      1.17179036     2.03778257    11.48298919    -0.04908212    -0.02494177     2.28980887
Ti      3.08736604     0.31842251     1.70079564     0.04855684    -0.02549918    -2.28997573
Ti      5.43065553     3.12029971    11.48293633    -0.04855684     0.02549918     2.28997573
Ti      1.17177707     0.31842128     8.29260854    -0.04908212    -0.02494177    -2.28980887
Ti      7.34624449     3.12030095     4.89112332     0.04908212     0.02494177     2.28980887
O       2.69600860     1.21083253     6.72755738     2.23900128     0.53522803    -1.70883961
O       5.82201302     2.22788958     6.45617448    -2.23900128    -0.53522803     1.70883961
O       1.56305753     1.21084638     0.13573391    -2.23872334     0.53546251    -1.70920548
O       6.95496415     2.22787572    13.04799758     2.23872334    -0.53546251     1.70920548
O       5.82199974     0.50852846     0.13569115    -2.23900128    -0.53522803    -1.70883961
O       2.69602183     2.93019364    13.04804035     2.23900128     0.53522803     1.70883961
O       6.95495086     0.50851461     6.72760020     2.23872334    -0.53546251    -1.70920548
O       1.56307064     2.93020755     6.45613166    -2.23872334     0.53546251     1.70920548
O       0.30949478     2.09162578     3.56125483    -1.45683876     0.42563523     0.42890413
O       8.20852679     1.34709633     9.62247703     1.45683876    -0.42563523    -0.42890413
O       4.56850325     1.34706436     3.03065296    -1.45583088    -0.42557121    -0.42928440
O       3.94951838     2.09165780    10.15307866     1.45583088     0.42557121     0.42928440
O       0.30948149     0.37226467     3.03061086    -1.45683876     0.42563523    -0.42890413
O       8.20854008     3.06645744    10.15312076     1.45683876    -0.42563523     0.42890413
O       3.94950509     0.37229663     9.62251901     1.45583088     0.42557121    -0.42928440
O       4.56851654     3.06642547     3.56121279    -1.45583088    -0.42557121     0.42928440
