# total energy = -19516.18341986 eV

CRYSTAL
PRIMVEC
        5.17600016     0.00000000     0.00000000
        0.00000000     5.50899976     0.00000000
        0.00000000     0.00000000     9.26300011
PRIMCOORD
23 1
Ti      1.91852900     3.21281802     3.45192200    -0.70761028     0.96377504     2.52654868
Ti      3.31971198     2.25922998     5.98079202     0.09432455     1.23639692    -2.40998819
Ti      4.20654098     2.12543402     1.51047201     1.52619378     0.73131586    -1.05231306
Ti      0.87704102     3.39058099     7.79557900    -1.94187395     1.19740047     1.75158859
Ti      1.94644098     0.25694699     1.33080802     0.23943793    -1.89468416     0.64504683
Ti      3.32662701     5.21691498     7.88124401     1.08495426    -1.32573482     3.14513936
Ti      0.71672100     0.62740498     5.88243898     0.46482580    -0.96960296    -3.27516575
Ti      4.56025798     4.84332500     3.37391402     0.45428581    -0.07249254     2.22718783
O       1.83171001     1.97382701     4.84202899    -1.36742347    -0.59345840     0.12905837
O       3.63743101     3.48470998     4.58077101    -0.10293801     0.36006873    -0.25166841
O       4.83668599     3.20338798     9.24123298    -0.08089131    -1.15658727    -0.27591727
O       3.12581700     1.11392399     0.29030802     0.99101048     0.03296181    -2.86834689
O       1.69871501     4.71913398     9.01500701     0.70418248     0.34168894     0.51957489
O       4.36664398     0.53961898     4.72371300    -1.12177915     1.96186068    -0.08477882
O       1.01596301     4.69869302     4.37294802     1.29928612    -0.37952196    -0.14867152
O       0.11736802     3.15922702     2.58733199     1.51627060     0.08918569     0.35895699
O       5.13809699     2.14368402     6.57041698    -0.63073349     0.59362037     1.41102194
O       2.66275399     1.79446000     2.56473999     0.68468785    -1.36975597    -1.91664807
O       2.66949502     3.60458498     7.15968802     0.07521842    -1.82544381    -0.43970508
O       0.21756398     0.52836099     1.85201697    -1.65191331     0.80006975     0.18404452
O       5.04693198     4.84340601     6.96757202    -0.00902972    -0.44840030     1.45472582
O       2.51526800     0.55409901     6.63227097    -0.59366794     1.03493651    -0.11790878
O       2.97064497     4.44277899     2.34378499    -0.92681696     0.69240168    -1.51178222
