# total energy = -19950.23256559 eV

CRYSTAL
PRIMVEC
        5.05048178     0.00000000     0.00000000
        1.57711271     5.13866894     0.00000000
        0.00000000     0.00000000     9.14500057
PRIMCOORD
24 1
Ti      2.76515223     3.04517048     3.39272999     2.23495488    -2.29034186     1.02607829
Ti      3.86244216     2.09349858     5.75227063    -2.23495488     2.29034186    -1.02607829
Ti      4.99823197     2.09350034     1.17973379    -4.28061376     0.05239730     1.59825103
Ti      1.62936251     3.04516891     7.96526693     4.28061376    -0.05239730    -1.59825103
Ti      1.97659600     0.47583610     1.17977045     2.23516365    -2.28951242    -1.02613074
Ti      4.65099842     4.66283311     7.96523027    -2.23516365     2.28951242     1.02613074
Ti      0.84080617     0.47583418     5.75223397     4.28109815    -0.05279968     1.59837084
Ti      5.78678825     4.66283503     3.39276665    -4.28109815     0.05279968    -1.59837084
O       2.15383754     1.80941273     4.66662379    -0.38555223     0.44631848    -0.91765200
O       4.47375687     3.32925638     4.47837683     0.38555223    -0.44631848     0.91765200
O       1.48209560     1.80943346     0.09415292     0.95713902    -0.76561927    -0.03857222
O       5.14549887     3.32923569     9.05084744    -0.95713902     0.76561927     0.03857222
O       3.68520061     0.75992185     0.09412325     0.38485366    -0.44670774    -0.91780806
O       2.94239380     4.37874726     9.05087711    -0.38485366     0.44670774     0.91780806
O       4.35694261     0.75990116     4.66665346    -0.95745038     0.76578948    -0.03910855
O       2.27065176     4.37876801     4.47834716     0.95745038    -0.76578948     0.03910855
O       1.14278504     3.12562979     2.47029280    -0.18598647    -0.80404853    -1.02447109
O       5.48480937     2.01303932     6.67470782     0.18598647     0.80404853     1.02447109
O       3.32655523     2.01299141     2.10223659     1.48111615    -1.22893069    -1.74610108
O       3.30103917     3.12567770     7.04276388    -1.48111615     1.22893069     1.74610108
O       0.35422873     0.55629526     2.10220738    -0.18581318    -0.80342324     1.02407437
O       6.27336563     4.58237386     7.04279309     0.18581318     0.80342324    -1.02407437
O       2.51248292     0.55634317     6.67473697    -1.48125910     1.22885921    -1.74577352
O       4.11511149     4.58232594     2.47026359     1.48125910    -1.22885921     1.74577352
