# total energy = -4918.02981467 eV

CRYSTAL
PRIMVEC
        4.64649642     0.00000000     0.00000000
       -0.00000642     2.23720184     0.00000000
       -2.32327424    -1.11866342     5.00577222
PRIMCOORD
6 1
Ti     -0.00019850     1.67797556     1.25144279    -0.06577116    -0.04142332    66.43790523
Ti      2.32341421    -0.55943729     3.75432881     0.06577116     0.04142332   -66.43790523
O       0.00004944     0.55928973     0.81539927     0.07214775     0.04154467   -55.00894017
O       2.32316612     0.55924845     4.19037237    -0.07214775    -0.04154467    55.00894017
O      -0.00001898    -0.55931517     3.31828529     0.00089500    -0.00064483     0.70349754
O       2.32323450     1.67785334     1.68748636    -0.00089500     0.00064483    -0.70349754
