# total energy = -19073.60326594 eV

CRYSTAL
PRIMVEC
        7.60600008     0.00000000     0.00000000
        0.00000000     7.60600008     0.00000000
       -1.89786986    -1.89786986     4.85670466
PRIMCOORD
22 1
Ti      3.86089198     6.61354900     1.18928100     1.38066645    -1.60637674     0.12495669
Ti      3.83864198     2.64293900     1.23302099     0.25502936     2.99815422     1.03762820
Ti      0.42370799     6.79921100     0.99930102    -1.72961002    -0.57626491    -0.05398419
Ti     -0.00908603     2.90825699     1.03382798     0.02185336     0.19974265     0.57105045
Ti      5.76851723     2.93544622     3.58428579    -2.01611201     0.41525388     0.42775613
Ti      5.98576523    -0.86534477     3.63548581    -0.69605625    -0.94436731    -2.58669632
Ti      1.81262825     2.80865122     3.71047779     1.77699624    -1.58851297    -0.78650615
Ti      1.06090122    -1.09296375     4.07430980     3.09490744     0.53826090    -3.14844400
O       3.88956402     4.79807198     0.81200000    -0.35455886    -0.59111561    -0.23291324
O       4.07044998     0.89409698     0.73679598    -0.69063405    -0.50823092     1.23489642
O       0.23908101     4.76883901     0.75401498     0.18888359     0.73709853    -0.43946494
O      -0.20173200     0.99030199     0.54443602     0.39356662     0.85461752     3.06624323
O       5.28786125     4.83939522     4.01240183     1.97808898    -0.65091769    -0.60724260
O       5.43467523     0.99519222     3.89896581     1.34837493    -0.11344483     0.75507826
O       1.77423924     4.73355924     4.07416084    -0.79413590     1.20844310     0.41743032
O       2.01665624     0.90066920     4.03495780    -1.82887418    -0.13760626     0.96504516
O       3.80868923     2.76729322     3.21573082    -0.61727273     0.36217267    -0.60579327
O      -0.00319380     2.83284621     3.10938281     0.97989406    -0.07648058     0.70643631
O       5.81626500     6.61669501     1.70335399    -1.26849432     0.16606350     0.98502572
O       5.77755901     2.95752598     1.69347700    -0.63109602    -0.01015586    -1.47949661
O       2.05292197     6.66665702     1.96389002    -0.33941762     0.12571928     0.28966136
O       1.96668900     2.84964801     1.58716201    -0.45199933    -0.80205233    -0.64066721
