# total energy = -19517.12227208 eV

CRYSTAL
PRIMVEC
        5.17600016     0.00000000     0.00000000
        0.00000000     5.50899976     0.00000000
        0.00000000     0.00000000     9.26300011
PRIMCOORD
23 1
Ti      1.85141599     3.32462100     3.39633198    -0.11065955    -0.58221059     2.27117068
Ti      3.28394802     2.25592299     5.82723500     1.20808520    -0.09169354    -2.70900760
Ti      4.28146602     2.09566500     1.51806898     1.54525311    -0.36163788    -1.32976219
Ti      0.95160802     3.33224602     7.76536202    -1.75521308     0.16452058     2.01286830
Ti      1.88441098     0.22515402     1.41175198     0.19699260     0.95627101    -2.36309099
Ti      3.37951298     5.27944801     7.90693498    -0.51205570    -0.64062864     1.34097195
Ti      0.73006802     0.59437898     5.87103601    -0.98132462    -0.44916109    -2.85130021
Ti      4.48973701     4.91080801     3.36649300     0.56295122     0.86303532     3.26807953
O       1.71416402     1.89793501     4.83090902    -0.18790734     0.89537518    -0.88674990
O       3.47894301     3.65551400     4.38771100    -0.19295571    -1.05094035     1.87420557
O       0.27691602     2.58530202     0.16159602    -0.13912373     0.46240459    -0.84763569
O       3.48484201     0.77415801     0.24720700    -0.16858601     0.55187593    -0.73343445
O       1.81744900     4.72043702     8.99217502    -0.21796098    -0.10269684     0.36485304
O       4.19858602     0.74745001     4.87328802     0.29181672     0.31037083    -0.91487135
O       0.93611302     4.72241498     4.54258801     0.44750221    -0.09358433    -0.67324695
O       0.08933602     3.32995998     2.70344502     0.13858765    -1.41720107    -1.32806398
O       5.09910002     2.10620002     6.72845402    -0.91135536     0.28252140     0.85886525
O       2.55557199     1.80950600     2.36915698    -0.00927423     0.27119209    -0.76523720
O       2.57445600     3.57557601     6.99403401     1.38264672     0.10453055     0.33930732
O       0.09581098     0.53580001     1.97008298     0.13203365     0.23231160     0.53181206
O       5.13476402     4.72856698     6.99320299    -1.12464079     0.07198526     1.92757578
O       2.38833801     0.81645498     6.81904102     0.40284265     0.19485370     1.34119692
O       2.88964201     4.54254901     2.29863299     0.00234562    -0.57149345    -0.72850564
