# total energy = -19901.04281357 eV

CRYSTAL
PRIMVEC
        6.75617000     0.00000000     0.00000000
        2.76565011     6.63747089     0.00000000
        0.00000000     0.00000000    12.35127879
PRIMCOORD
24 1
Ti      4.08770842     3.93335923     4.58223634    -0.30276011    -1.98325098     0.45672965
Ti      5.43411180     2.70411185     7.76904259     0.30276011     1.98325098    -0.45672965
Ti      6.95348964     2.70411411     1.59335375     0.03698662    -1.10482992     0.13366142
Ti      2.56833063     3.93335724    10.75792524    -0.03698662     1.10482992    -0.13366142
Ti      2.70488350     0.61462376     1.59340326    -0.30276011    -1.98325098    -0.45672965
Ti      6.81693676     6.02284752    10.75787573     0.30276011     1.98325098     0.45672965
Ti      1.18550555     0.61462131     7.76899301    -0.03698662     1.10482992     0.13366142
Ti      8.33631471     6.02284996     4.58228585     0.03698662    -1.10482992    -0.13366142
O       3.11220287     2.33716640     6.30276305     1.77837435     1.99247791    -0.74907113
O       6.40961729     4.30030469     6.04851588    -1.77837435    -1.99247791     0.74907113
O       2.21359766     2.33719322     0.12716334    -0.27096018    -0.71022637     1.54166128
O       7.30822265     4.30027797    12.22411518     0.27096018     0.71022637    -1.54166128
O       5.02679234     0.98156908     0.12712324    -1.77837435    -1.99247791    -0.74907113
O       4.49502788     5.65590200    12.22415528     1.77837435     1.99247791     0.74907113
O       5.92539763     0.98154231     6.30280308     0.27096018     0.71022637     1.54166128
O       3.59642247     5.65592885     6.04847578    -0.27096018    -0.71022637    -1.54166128
O       1.92769249     4.03728625     3.33638856     0.61140547     2.66303523     2.54100137
O       7.59412767     2.60018484     9.01489037    -0.61140547    -2.66303523    -2.54100137
O       4.70696488     2.60012307     2.83929019     0.52979631     2.09485233     1.62484807
O       4.81485527     4.03734802     9.51198854    -0.52979631    -2.09485233    -1.62484807
O       0.54486752     0.71855058     2.83925070     0.61140547     2.66303523    -2.54100137
O       8.97695270     5.91892050     9.51202796    -0.61140547    -2.66303523     2.54100137
O       3.43203032     0.71861241     9.01492972    -0.52979631    -2.09485233     1.62484807
O       6.08978983     5.91885868     3.33634914     0.52979631     2.09485233    -1.62484807
