# total energy = -19072.78792735 eV

CRYSTAL
PRIMVEC
        7.60600008     0.00000000     0.00000000
        0.00000000     7.60600008     0.00000000
       -1.89786986    -1.89786986     4.85670466
PRIMCOORD
22 1
Ti      3.73778000     6.58809600     0.98482500     1.89155461     0.92758469    -0.83309301
Ti      3.85522301     2.95342502     1.18242799     1.24748892    -0.57246199     2.53064316
Ti      0.18013400     6.51292499     1.25278999    -3.56660349     0.52863263    -0.42381309
Ti      0.01597501     2.82443298     1.16124899    -1.28290279     1.47925133     0.22487031
Ti      5.73612920     2.87634220     3.72044680    -2.76373406     0.43884325    -2.00914997
Ti      6.10029925    -0.98359678     3.76612581    -1.50543982     1.09946043    -0.10544818
Ti      1.75633723     2.53102325     3.48818281     2.62894367     1.35561464    -0.98220368
Ti      1.46350424    -0.72417780     3.82801081     1.95597363    -1.73453703    -0.73589114
O       4.02443500     4.73803598     0.40483197    -1.39703796     0.91648780     1.94439337
O       3.88813402     1.08137001     0.80066402    -1.37502057    -0.69137324     0.56918820
O       7.19675303     4.83748002     0.83314502     1.47297269    -0.05567186     0.31095345
O      -0.14472903     1.07564801     0.77768799     0.66339063    -1.21167909     0.55454011
O       5.43913524     4.91000122     4.33757183     1.40470139    -0.65733645    -2.54365192
O       5.77146025     1.12986122     4.15229179     0.31575781    -2.45284875    -1.21640016
O       1.92764222     4.96336621     3.96674579    -0.98074715     0.23332950     0.94816638
O       2.50703522     0.86595322     3.90743280    -2.07822628    -1.31624641    -0.44561785
O       3.82572021     2.73971324     3.18252680     0.26102466     1.17410909    -1.19423775
O      -0.02818980     2.38528222     3.01773979    -0.01039832     0.44164550     2.71467354
O       5.44653399     6.58714200     2.03459699    -0.47703392     0.28694833    -0.16246421
O       5.67746000     3.06856399     1.69816499     0.03222159    -0.07948311     0.28318269
O       1.90733399     6.49431600     1.60790899     2.03226060     0.35782313     0.96794614
O       1.78760298     3.24648899     1.64659502     1.53085364    -0.46809187    -0.39658638
