# total energy = -4870.94997717 eV

CRYSTAL
PRIMVEC
        5.61915148     0.00000000     0.00000000
       -0.00000695     1.87305049     0.00000000
       -2.80961150    -0.93664713     6.37447769
PRIMCOORD
6 1
Ti     -0.00024048     1.40483254     1.59361903    -0.06578041    -0.04337993   126.01452679
Ti      2.80977336    -0.46842922     4.78085772     0.06578041     0.04337993  -126.01452679
O       0.00005933     0.46824232     1.03835016     0.06576036     0.04287085  -121.77702737
O       2.80947339     0.46816094     5.33612664    -0.06576036    -0.04287085   121.77702737
O      -0.00002578    -0.46832098     4.22558884    -0.00092508    -0.00146630    -0.41318929
O       2.80955839     1.40472420     2.14888796     0.00092508     0.00146630     0.41318929
