# total energy = -19076.43912934 eV

CRYSTAL
PRIMVEC
        7.60600008     0.00000000     0.00000000
        0.00000000     7.60600008     0.00000000
       -1.89786986    -1.89786986     4.85670466
PRIMCOORD
22 1
Ti      3.91618201     6.62297000     1.15081801    -0.43071985     0.38729081     0.79063071
Ti      3.73428098     2.84544000     1.23005902     0.02465277    -0.27737225     0.36494200
Ti      0.03412701     6.72338900     1.13309602     0.01881251    -0.90507544    -0.76977983
Ti     -0.09337602     2.84314099     1.06497699     0.20290434     0.42469189     1.26799964
Ti      5.72694221     2.78121524     3.63607182    -0.00651106     1.39439409    -0.48752222
Ti     -1.39727078    -1.01461678     3.71233081    -1.43146222    -0.47007959    -0.35969181
Ti      1.86747720     2.89475424     3.62905779    -0.19465469    -1.35848528    -0.41710868
Ti      1.56319124    -0.91184379     3.71394882     0.28838044     0.15178462     0.09950353
O       3.67610403     4.74574699     0.87972500     0.05831804     0.15454675    -0.26615941
O       3.63180803     0.93463402     0.91957999     0.64339104    -0.37176829    -0.36150932
O       0.05988900     4.76495300     0.71494000    -0.13380386    -0.51853796     0.28480095
O       7.29443899     0.93437197     0.65920499     0.93367898    -0.19591916     0.69101046
O       5.51061021     4.68531622     3.98460182     1.08588294     1.68436630     0.06894544
O       5.67258522     0.87353125     3.99131682     0.60342194    -0.10702427    -0.48812155
O       2.10650223     4.70924222     4.19136481    -0.27534905     1.63828132    -1.21296105
O       2.02909021     0.90769821     4.04695583    -0.79852349    -0.06767815     0.38848920
O       3.72854422     2.84915223     3.21228980     0.38216917    -0.22340658    -0.39684221
O      -0.01581277     3.01119720     3.24401381     0.17719407    -0.50559014     0.10573023
O       5.81154198     6.58376802     1.84075301    -0.78480356     0.12562029     0.02260026
O       5.72230301     2.93681801     1.63297501    -0.90682765    -0.34851805    -0.24470843
O       1.87354999     6.77710700     1.79008302     0.09927856    -0.66431340     0.60460182
O       1.78956998     2.79342600     1.60027201     0.44457116     0.05279274     0.31515026
