# total energy = -19902.46369689 eV

CRYSTAL
PRIMVEC
        6.72142679     0.00000000     0.00000000
        1.06707881     7.07359694     0.00000000
        0.00000000     0.00000000    12.06403958
PRIMCOORD
24 1
Ti      3.06854382     4.19180692     4.47567268    -0.19077850    -1.46110422     0.63242656
Ti      4.71996170     2.88178981     7.58836718     0.19077850     1.46110422    -0.63242656
Ti      6.23152567     2.88179220     1.55629900     0.25319205     0.16790981    -0.46710765
Ti      1.55697987     4.19180481    10.50774099    -0.25319205    -0.16790981     0.46710765
Ti      2.53500456     0.65500858     1.55634739    -0.19077850    -1.46110422    -0.63242656
Ti      5.25350097     6.41858836    10.50769261     0.19077850     1.46110422     0.63242656
Ti      1.02344058     0.65500599     7.58831880    -0.25319205    -0.16790981    -0.46710765
Ti      6.76506496     6.41859095     4.47572106     0.25319205     0.16790981     0.46710765
O       2.50311058     2.49073364     6.15618711     1.64660809     1.73232639    -0.38082706
O       5.28539494     4.58286309     5.90785267    -1.64660809    -1.73232639     0.38082706
O       1.60911956     2.49076224     0.12420604    -1.05306691     0.68138810     0.49001336
O       6.17938603     4.58283456    11.93983347     1.05306691    -0.68138810    -0.49001336
O       4.75185567     1.04606455     0.12416691    -1.64660809    -1.73232639    -0.38082706
O       3.03664986     6.02753219    11.93987260     1.64660809     1.73232639     0.38082706
O       5.64584676     1.04603601     6.15622631     1.05306691    -0.68138810     0.49001336
O       2.14265870     6.02756079     5.90781354    -1.05306691     0.68138810    -0.49001336
O       0.89326279     4.30256263     3.25879812     0.49437318     0.81001812     1.14002371
O       6.89524273     2.77103404     8.80524173    -0.49437318    -0.81001812    -1.14002371
O       4.02294269     2.77096825     2.77326018     0.52246995     1.18641208     0.43389207
O       3.76556283     4.30262841     9.29077947    -0.52246995    -1.18641208    -0.43389207
O       0.35972352     0.76576408     2.77322160     0.49437318     0.81001812    -1.14002371
O       7.42878200     6.30783259     9.29081798    -0.49437318    -0.81001812     1.14002371
O       3.23202355     0.76582987     8.80528018    -0.52246995    -1.18641208     0.43389207
O       4.55648197     6.30776680     3.25875961     0.52246995     1.18641208    -0.43389207
