# total energy = -4987.31254688 eV

CRYSTAL
PRIMVEC
        3.13237537     0.00000000     0.00000000
        1.66674277     4.61628263     0.00000000
       -0.00001083    -0.00006503     4.98722646
PRIMCOORD
6 1
Ti      2.39955365     2.30810874     2.49361323     0.00000000     0.00000000     0.00000000
Ti      0.00000000     0.00000000     0.00000000     0.00000000     0.00000000     0.00000000
O       1.89100916     0.89963281     0.97193700    -0.78206277     0.57297569     0.31771468
O       2.90809813     3.71658468     4.01528952     0.78206277    -0.57297569    -0.31771468
O       0.50853993     1.40844965     3.46555122     0.78276262    -0.57282040     0.31815665
O       1.15819210     3.20776782     1.52167530    -0.78276262     0.57282040    -0.31815665
