# total energy = -19074.47435498 eV

CRYSTAL
PRIMVEC
        5.93400000     0.00000000     0.00000000
        0.00000000     9.29699974     0.00000000
        0.00000000     0.00000000     4.64899994
PRIMCOORD
22 1
Ti      4.33222000     7.01443897     2.24157398     0.59579039    -0.83056742     0.30695152
Ti      4.37167000     2.32847102     2.27128601     1.61057587     0.87870183    -0.89715824
Ti      1.46786202     6.92412900     2.55614202    -0.75204924     0.43111348     0.44798378
Ti      1.63061302     2.40708703     2.15717899    -1.56774256     0.61589411    -0.74826843
Ti      3.00992199     4.65745302     4.56622599    -0.26738223     0.69948970     0.22183203
Ti      3.00347598     9.19743499     4.55170102    -0.73267983     1.05885061     0.91786154
Ti      5.87401400     4.58506999     4.56232600     0.16832916    -0.51947590     0.37009218
Ti      5.92738799     9.18389102     0.26190802     0.31245677     0.65786995     0.38026913
O       4.46082801     5.59285298     0.91373501     0.31731461     0.21995076     0.63070032
O       4.43435602     0.96241498     0.85825300     0.66016955    -0.40987565    -0.28116926
O       1.53890602     0.84554698     1.02412102    -0.78181903     0.46656721    -0.85409533
O       4.43801301     8.28637698     3.94527702     1.14075056     0.31555752    -1.06937414
O       4.38473401     3.89240703     3.60343899     0.59792286    -1.36187734    -0.86917409
O       1.45029101     8.29916301     3.82625902    -0.47185108     1.54491347     0.40795966
O       1.62487701     3.87387100     3.51808699    -0.86511226    -0.01495020     0.56640935
O       2.95891301     6.33583800     3.50026599     0.27560693    -1.67567468    -0.61724342
O       3.03398998     1.45275798     3.08597900    -0.90914344    -1.52512085     2.15543011
O       5.87690601     6.14749101     3.29777499     0.46592212    -0.96985287    -0.08163436
O       2.94605199     8.02673902     1.58649298    -0.22464148    -0.46426144    -0.79785603
O       3.06336201     3.13155000     1.22287502    -0.16282160     1.30849659    -0.38526170
O       0.02078000     7.96293400     1.55388401    -0.24204426    -0.89363146     0.45567550
O       5.90232202     3.15488698     1.32332202     0.83244792     0.46788258    -0.25992963
