# total energy = -19958.71851728 eV

CRYSTAL
PRIMVEC
        7.60600008     0.00000000     0.00000000
        0.00000000     7.60600008     0.00000000
       -1.89786986    -1.89786986     4.85670466
PRIMCOORD
24 1
Ti      3.92634300     6.61627199     1.24675102     0.95955920    -1.85571188    -0.66893418
Ti      3.65801400     2.59974300     1.38695500    -1.68307201     1.20949520     0.17122448
Ti      0.25820299     6.77042402     1.07175300    -2.36618532    -0.35918787     0.67083423
Ti     -0.15880900     2.86250797     1.05413399     0.99008026     0.83415436     1.82709086
Ti      5.74337924     3.09390020     3.66839280     0.63926544    -1.02069825    -2.37397808
Ti      5.72098420    -0.80849177     3.56515683     1.54904009     0.15169334    -0.31687624
Ti      1.75963623     2.74190525     3.85083179    -0.20003679     0.38244994    -1.87608376
Ti      1.75165322    -0.95506376     3.64660583    -0.81526755    -0.81701770     0.14745102
O       3.52807299     4.65595302     0.83383502     0.45825020    -0.29642774     1.24545415
O       3.91701498     0.74384298     0.69818101     0.16259020     2.43803739     1.89933169
O       0.15642601     4.76765000     0.56602698    -0.02287717     0.63025398     2.15221289
O       0.15088002     1.04504500     0.82252100    -1.15091156    -0.55737398    -1.22921582
O      -1.53492777     4.89045220     4.02671581    -1.12967244     0.03612684    -0.35815763
O      -1.54475280     0.98982123     4.02573784    -1.29090381    -0.74419452    -0.98591147
O       1.78445321     4.62226623     4.19625081     0.19078801     0.37161119    -1.27561731
O       1.55622822     0.80157023     4.18897283     0.52314281    -0.01202428    -0.02889175
O       3.65046322     2.53486322     3.37658282     1.05282728     0.61268408    -0.62780269
O       3.88204822    -1.05867179     3.14434180     0.48121762     0.36318465     0.90595527
O      -0.01024080     3.05239222     2.99022480    -0.73552630    -0.53883735     1.49572414
O      -0.05687777    -1.02094077     3.05053783     1.71463000    -0.04568184     1.42535559
O       6.00025702     6.66055799     1.42794501    -3.83155011    -0.05325477     0.43260189
O       5.60980501     3.13090001     1.66261502    -0.61594630    -0.99891791    -0.93745541
O       1.88962999     6.72451900     1.80687900     2.75723585     0.06657951    -1.50715861
O       1.78229898     2.64929801     1.66053599     2.36332214     0.20305732    -0.18715350
