# total energy = -4812.45452348 eV

CRYSTAL
PRIMVEC
        5.16277370     0.00000000     0.00000000
       -0.00000639     1.72092457     0.00000000
       -2.58141971    -0.86057426     5.85675361
PRIMCOORD
6 1
Ti     -0.00022095     1.29073446     1.46418804    -0.10003343    -0.05793880   186.90504941
Ti      2.58156841    -0.43038421     4.39256471     0.10003343     0.05793880  -186.90504941
O       0.00005451     0.43021249     0.95401715     0.09989434     0.05920224  -180.45299707
O       2.58129281     0.43013772     4.90273565    -0.09989434    -0.05920224   180.45299707
O      -0.00002368    -0.43028476     3.88239381    -0.00088549     0.00101456     0.01920461
O       2.58137091     1.29063492     1.97435899     0.00088549    -0.00101456    -0.01920461
