# total energy = -19960.44107675 eV

CRYSTAL
PRIMVEC
        7.60600008     0.00000000     0.00000000
        0.00000000     7.60600008     0.00000000
       -1.89786986    -1.89786986     4.85670466
PRIMCOORD
24 1
Ti      3.74231902     6.71009501     1.28661998     0.36318260     1.98270540     1.51818607
Ti      3.69939899     3.03946601     1.22182899     1.05452421    -1.70405839    -1.25338780
Ti      0.06179901     6.44993300     1.19787901    -0.13752682     2.04694495     0.13414504
Ti      0.07039502     2.80764198     1.08893200    -0.75028289    -1.62960204     0.37531127
Ti      5.68315422     2.82718222     3.47005780     1.37546537    -0.59498794    -0.05396285
Ti      5.69148124    -1.07187175     3.59316983     0.01435422     0.39348383     0.94872945
Ti      1.93471420     3.05529524     3.72438182    -0.81145511    -1.88041170    -0.83880472
Ti      1.80879420    -0.92856679     3.69769880     0.58344549     1.69003044     0.66793274
O       3.71305499     4.92826303     0.92105200     0.34487685    -2.33177854    -0.88277549
O       3.74977899     1.05938301     0.87016801    -0.10195353    -0.30288172    -0.04230572
O       0.09211298     4.68894002     0.70968998     0.08165621    -1.16409336    -0.47717558
O       0.34357002     0.82989799     0.76889100    -1.02986552     0.40769355    -0.20827717
O       5.84656420     4.65116724     4.03501580    -0.50027181    -0.09571192     0.05963316
O       5.67654421     0.81872420     3.90835479     0.26367521     1.43678286     0.70283702
O       1.75109123     4.87382323     4.17076384     0.26636047    -1.18163523     0.25294059
O       1.84418123     1.12038725     4.01726682    -0.21977592    -0.27048761     1.71383810
O       3.80216823     3.01994223     3.41513582    -0.16378653     0.21286248    -1.18711708
O       3.79167422    -0.99622777     3.32662881    -0.18026062     0.05209751    -0.52589158
O      -0.02958979     2.88196021     3.03177283     0.02292859     0.12942115     0.89738964
O       0.04014222    -1.07684877     3.23485683    -0.82634386     0.55544282    -0.30740609
O       5.71932899     6.54333401     1.67397799    -0.09192777     0.13720157    -0.76888200
O       5.72276599     2.83573298     1.42992901    -0.94743850     0.15978178     1.17504240
O       1.87461999     6.34118200     1.79363401     0.78666196     0.93875202    -0.84746111
O       1.93707698     2.76566399     1.79909999     0.60375721     1.01244784    -1.05253778
