# total energy = -4986.81892862 eV

CRYSTAL
PRIMVEC
        3.80122887     0.00000000     0.00000000
        0.00000000     3.57357319     0.00000000
        0.00000000    -0.00007038     5.08241515
PRIMCOORD
6 1
Ti      1.90061427     1.78675152     2.54120768     0.00000000     0.00000000     0.00000000
Ti      0.00000000     0.00000000     0.00000000     0.00000000     0.00000000     0.00000000
O       1.90061427     0.69642311     0.99048791     0.00000000    -0.20379034     0.57085942
O       1.90061427     2.87707992     4.09192751     0.00000000     0.20379034    -0.57085942
O       0.00000000     1.09030030     3.53169658     0.00000000     0.20372246     0.57145849
O       0.00000000     2.48320273     1.55071878     0.00000000    -0.20372246    -0.57145849
