# total energy = -19913.48376454 eV

CRYSTAL
PRIMVEC
        5.85506978     0.00000000     0.00000000
        0.00002209     3.73893906     0.00000000
        0.00000000     0.00000000     8.94232585
PRIMCOORD
24 1
Ti      2.12219428     2.21569181     3.31753913    -1.11144923     3.59488923    -5.48395630
Ti      3.73289769     1.52324720     5.62478682     1.11144923    -3.59488923     5.48395630
Ti      5.04962867     1.52324846     1.15358812    -1.10734472    -3.59446860     5.48744889
Ti      0.80546334     2.21569069     7.78873788     1.10734472     3.59446860    -5.48744889
Ti      2.12218343     0.34622233     1.15362399    -1.11144923     3.59488923     5.48395630
Ti      3.73290854     3.39271678     7.78870205     1.11144923    -3.59488923    -5.48395630
Ti      0.80545244     0.34622097     5.62475095     1.10734472     3.59446860     5.48744889
Ti      5.04963953     3.39271814     3.31757495    -1.10734472    -3.59446860    -5.48744889
O       1.85317438     1.31654397     4.56320045     3.46695829    -3.86029557     5.78134743
O       4.00191764     2.42239500     4.37912550    -3.46695829     3.86029557    -5.78134743
O       1.07441034     1.31655906     0.09206626    -3.46621627    -3.86113684     5.78176884
O       4.78068173     2.42237995     8.85025940     3.46621627     3.86113684    -5.78176884
O       4.00190679     0.55292542     0.09203724    -3.46695829     3.86029557     5.78134743
O       1.85318523     3.18601354     8.85028842     3.46695829    -3.86029557    -5.78134743
O       4.78067082     0.55291037     4.56322943     3.46621627     3.86113684     5.78176884
O       1.07442110     3.18602864     4.37909647    -3.46621627    -3.86113684    -5.78176884
O       0.21274160     2.27423469     2.41554530     4.35185288    -0.90091231     2.80653215
O       5.64235042     1.46470428     6.52678060    -4.35185288     0.90091231    -2.80653215
O       3.14028347     1.46466952     2.05564607     4.35284276     0.90097119    -2.80666842
O       2.71480850     2.27426950     6.88667969    -4.35284276    -0.90097119     2.80666842
O       0.21273070     0.40476511     2.05561753     4.35185288    -0.90091231    -2.80653215
O       5.64236127     3.33417385     6.88670823    -4.35185288     0.90091231     2.80653215
O       2.71479764     0.40479992     6.52680909    -4.35284276    -0.90097119    -2.80666842
O       3.14029433     3.33413905     2.41551676     4.35284276     0.90097119     2.80666842
