# total energy = -4988.98404158 eV

CRYSTAL
PRIMVEC
        3.94183683     0.00000000     0.00000000
        1.15652089     3.76835999     0.00000000
       -2.54921443    -1.88420629     5.08951905
PRIMCOORD
6 1
Ti      0.86727004     2.82641446     1.27237946     0.00036664    -0.00036664     0.00000000
Ti      1.68187300    -0.94226094     3.81713883    -0.00036664     0.00036664     0.00000000
O       0.28917145     0.94208477     0.82904092    -0.00045971    -0.00063403    -1.14606863
O       2.25997141     0.94206866     4.26047737     0.00045971     0.00063403     1.14606863
O      -0.28914109    -0.94206233     3.37380028    -0.00063403    -0.00045971    -1.14606863
O       2.83828393     2.82621566     1.71571806     0.00063403     0.00045971     1.14606863
