# total energy = -19904.29639122 eV

CRYSTAL
PRIMVEC
        8.40542231     0.00000000     0.00000000
        0.00002753     3.83396182     0.00000000
        0.00000000     0.00000000    12.79239580
PRIMCOORD
24 1
Ti      3.04657749     2.27200224     4.74588761     0.13513132    -0.22079794     2.71064899
Ti      5.35887198     1.56195964     8.04650838    -0.13513132     0.22079794    -2.71064899
Ti      7.24914478     1.56196095     1.65025922     0.13518274     0.22088870    -2.71124832
Ti      1.15630469     2.27200106    11.14213689    -0.13518274    -0.22088870     2.71124832
Ti      3.04656391     0.35502139     1.65031054     0.13513132    -0.22079794    -2.71064899
Ti      5.35888556     3.47894055    11.14208557    -0.13513132     0.22079794     2.71064899
Ti      1.15629111     0.35501996     8.04645706    -0.13518274    -0.22088870    -2.71124832
Ti      7.24915836     3.47894198     4.74593892     0.13518274     0.22088870     2.71124832
O       2.66037883     1.35000312     6.52786171     1.78964582     0.86871103    -2.06117806
O       5.74507064     2.48395870     6.26453428    -1.78964582    -0.86871103     2.06117806
O       1.54240066     1.35001859     0.13170487    -1.78706726     0.86807854    -2.05941300
O       6.86304887     2.48394330    12.66069075     1.78706726    -0.86807854     2.05941300
O       5.74505713     0.56697779     0.13166338    -1.78964582    -0.86871103    -2.06117806
O       2.66039234     3.26698409    12.66073224     1.78964582     0.86871103     2.06117806
O       6.86303535     0.56696232     6.52790320     1.78706726    -0.86807854    -2.05941300
O       1.54241406     3.26699956     6.26449278    -1.78706726     0.86807854     2.05941300
O       0.30540505     2.33203290     3.45554528    -1.88857342     0.54043246     0.10385229
O       8.10004442     1.50192892     9.33685071     1.88857342    -0.54043246    -0.10385229
O       4.50812690     1.50189320     2.94069338    -1.89242853    -0.54031239    -0.10395205
O       3.89732257     2.33206868     9.85170242     1.89242853     0.54031239     0.10395205
O       0.30539153     0.41505199     2.94065256    -1.88857342     0.54043246    -0.10385229
O       8.10005794     3.41890989     9.85174324     1.88857342    -0.54043246     0.10385229
O       3.89730906     0.41508771     9.33689147     1.89242853     0.54031239    -0.10395205
O       4.50814041     3.41887417     3.45550446    -1.89242853    -0.54031239     0.10395205
