# total energy = -39033.62202333 eV

CRYSTAL
PRIMVEC
        5.93200024     0.00000000     0.00000000
        0.00000000     9.29399984     0.00000000
        0.00000000     0.00000000     9.29399984
PRIMCOORD
46 1
Ti      4.38249998     7.12471703     6.81402801     0.95014201     1.02886871     0.21162038
Ti      4.49206698     6.87941601     2.37777299    -0.60302290    -1.01042361     0.24967992
Ti      4.46037498     2.07359402     7.09027399    -0.31974354     1.73856338    -0.33604331
Ti      4.45492101     2.60528603     1.98040802    -0.07989449    -0.64245618     0.67199946
Ti      1.60348602     6.75080202     7.11305301    -2.11808945     2.06865509     0.50575623
Ti      1.50051199     7.12512301     2.21990502     1.21030458    -1.08066823     0.86169809
Ti      1.51056001     2.38348302     6.70152202     1.27451019     0.62262706     0.20639255
Ti      1.48988601     2.04513598     2.61758299    -1.89342818     2.03684693    -0.96524494
Ti      2.94317602     4.73114498     4.79066101    -0.49958198    -0.92474979    -1.25937770
Ti      2.90463101     4.79286599     9.08001299     0.27729486    -1.08625806     0.45106268
Ti      3.01304303     9.20233099     4.56217302    -1.73240764     0.50354997     0.95295429
Ti      2.90922702     0.06833800     9.27418099    -0.33288342    -1.03754541    -0.10825325
Ti      5.86019697     4.67149299     4.79107298     0.45162524    -0.44806580    -1.44641781
Ti      5.89617499     4.73197002     9.20802198     0.23373239     0.22813947    -0.60881714
Ti      5.89155898     9.11526398     4.89657499     1.16059614    -0.10451744     0.60819854
Ti      5.86556701     0.00522700     9.08749101     1.12804776    -0.63623488    -0.05704740
O       4.37233301     5.65149502     5.71924199     0.59598450    -1.08967018    -1.33500956
O       4.43711499     5.52205599     0.95477700    -0.03611887    -0.88144802     0.18738592
O       4.34040198     0.81863699     5.61156500     0.97721137     0.09836530    -0.21951496
O       4.65584300     0.97250602     0.83248498    -1.10638492     0.74228933     0.07482710
O       1.46797902     5.42812899     5.87355701    -0.49194375    -0.41395316    -1.07795623
O       1.52735001     5.63323201     0.74644198    -0.08017500     0.15070835     0.91896223
O       1.42722697     0.88595501     5.46046299     0.10720784     1.21221800    -0.20000773
O       1.41029399     0.72021902     0.82344901     0.32292425     1.65862364     1.99071721
O       4.39651598     8.46151200     8.11966498     0.54123644     1.81602689     1.96710239
O       4.44827402     8.35570200     3.92955199     0.81714471    -1.35256763    -1.73446555
O       4.39603697     3.59245698     8.31713398     0.53133769     1.36440294     2.14789189
O       4.35653500     3.96234500     3.83631699     1.05023124    -1.04961983    -1.13414873
O       1.56540002     8.16835701     8.52331202    -0.29756082     1.24443033     0.18214987
O       1.46615002     8.38848702     3.82901598    -0.34316192     0.32182664    -1.67038078
O       1.48673401     3.87982801     8.24788098     0.01277633    -0.32846524     0.29877618
O       1.44360300     3.65244298     4.02611001    -0.23721701    -0.50148589    -0.88595826
O       3.18511300     6.18963802     7.91435701    -0.10673656    -0.97964877     0.68278164
O       2.77511297     6.02896599     3.18735999     0.83331927     0.55123778     0.35695667
O       2.85021201     1.45084400     7.81203202    -0.06145479    -0.97716586     1.02254816
O       3.14344902     1.54689300     3.02272401     1.10768822    -0.90892027     0.88480923
O       5.84723002     6.17467199     7.99544200    -0.16094726    -0.94560299     0.13265637
O       0.09644298     6.10304700     3.39268500    -0.55525025    -0.19365916    -0.20908090
O       0.14507500     1.47830703     7.83290499    -0.19997791    -1.79540869     0.98547798
O       2.74471000     7.97636299     6.11147002     0.97309477    -0.92306109    -0.31321242
O       3.23033199     8.05210698     1.47058601    -1.45896660    -0.70729814     0.39751918
O       3.13670402     3.28376000     6.06833202    -0.90585937    -0.91950551     0.28221313
O       0.12540199     7.76775200     6.12609298    -0.09332619     0.84158974    -0.66661788
O       5.85948999     7.78807299     1.53493799     0.08299370     1.04416112    -1.13197872
O       5.88171401     3.05327299     6.11079997    -1.05917380     1.79137565    -1.35150216
O       0.21276000     3.22538302     1.64776498     0.13390439    -0.12610700    -0.52110135
