# total energy = -19960.64036594 eV

CRYSTAL
PRIMVEC
        5.93400000     0.00000000     0.00000000
        0.00000000     9.29699974     0.00000000
        0.00000000     0.00000000     4.64899994
PRIMCOORD
24 1
Ti      4.45573902     6.91074098     2.23934302    -1.03662676     0.96897689     0.78301536
Ti      4.45036803     2.43918798     2.41766999     0.34361135    -1.27798993    -2.07991036
Ti      1.47405498     6.91731198     2.19669599     0.95195464     1.19504662     0.98190260
Ti      1.45253699     2.25332299     2.40871298    -0.39731015    -0.11374462    -1.26364548
Ti      2.99296800     4.63592800     0.04978399    -1.56619193     0.05418345     0.18795568
Ti      3.01217798     0.08314798     0.01377501    -1.00680709    -0.22179784     0.35404978
Ti      5.91172302     4.67150300     4.52357102     1.70573758    -0.16425627     0.64044789
Ti      5.89235301     9.26281003     0.03683899     1.25888251     0.10424799    -0.22161272
O       4.52939297     5.55387002     0.95375701    -0.25256496    -0.78119013    -0.69877159
O       4.47225099     0.92385500     1.02205500    -0.50796198    -0.03662049    -0.29425052
O       1.51041300     5.56670199     0.90975899    -0.22321632    -0.57216477    -0.36901849
O       1.48268798     0.79116402     0.96136102    -0.03258412     1.22299118     0.98006915
O       4.42328198     8.45541598     3.83320500    -0.18016652    -0.74127734    -1.27990900
O       4.42995702     3.79512599     3.74326800     0.36242618     0.14000279     0.14126674
O       1.38355900     8.44602499     3.77991098     0.95924758    -0.44502958    -0.94087267
O       1.57452600     3.82220600     3.68929398    -0.80288562    -0.08185624     0.49136988
O       2.97039700     6.01009098     3.22490099     0.37474382     0.71361792    -0.27569512
O       2.95682202     1.44136902     3.14430899     0.45228652    -0.46847008     1.58086265
O       0.02849101     6.11957299     3.24631298    -0.30843119    -0.64277037     0.34701858
O       0.00699599     1.50283402     3.38712800    -0.44601637     0.56585682    -0.82910652
O       2.99600601     7.86309101     1.36665200     0.01958924    -0.57646185     0.78793825
O       2.90832499     3.12666701     1.33737802     0.76592626     1.12347300     0.07141010
O       5.92815201     7.75961500     1.30640099    -0.14520028    -0.01136582     1.05940314
O       0.00766100     3.24254101     1.44119900    -0.28844189     0.04659895    -0.15391735
