# total energy = -19962.22124030 eV

CRYSTAL
PRIMVEC
        5.17575250     0.00000000     0.00000000
        0.00002837     5.50856584     0.00000000
        0.00000000     0.00000000     9.26345890
PRIMCOORD
24 1
Ti      1.87597816     3.26437102     3.43667725     0.00155243    -0.00312492    -0.00049417
Ti      3.29980272     2.24419487     5.82678192    -0.00155243     0.00312492     0.00049417
Ti      4.46376380     2.24419676     1.19501532     0.00077442     0.00326299     0.00066720
Ti      0.71201707     3.26436934     8.06844395    -0.00077442    -0.00326299    -0.00066720
Ti      1.87596408     0.51008821     1.19505247     0.00155243    -0.00312492     0.00049417
Ti      3.29981680     4.99847784     8.06840681    -0.00155243     0.00312492    -0.00049417
Ti      0.71200300     0.51008615     5.82674477    -0.00077442    -0.00326299     0.00066720
Ti      4.46377788     4.99847989     3.43671440     0.00077442     0.00326299    -0.00066720
O       1.63816833     1.93965967     4.72707227     0.00973626     0.00139174    -0.00053813
O       3.53761254     3.56890622     4.53638690    -0.00973626    -0.00139174     0.00053813
O       0.94975816     1.93968191     0.09537250    -0.00945549     0.00115365    -0.00059315
O       4.22602277     3.56888403     9.16808640     0.00945549    -0.00115365     0.00059315
O       3.53759846     0.81462324     0.09534245    -0.00973626    -0.00139174    -0.00053813
O       1.63818241     4.69394264     9.16811646     0.00973626     0.00139174     0.00053813
O       4.22600869     0.81460106     4.72710233     0.00945549    -0.00115365    -0.00059315
O       0.94977213     4.69396488     4.53635684    -0.00945549     0.00115365     0.00059315
O       0.18806429     3.35062202     2.50229141    -0.00161337     0.00501957     0.00353424
O       4.98771658     2.15794387     6.76116776     0.00161337    -0.00501957    -0.00353424
O       2.77594470     2.15789253     2.12946762    -0.00160385    -0.00502419    -0.00341520
O       2.39983618     3.35067336     7.13399139     0.00160385     0.00502419     0.00341520
O       0.18805022     0.59633905     2.12943804    -0.00161337     0.00501957    -0.00353424
O       4.98773066     4.91222684     7.13402097     0.00161337    -0.00501957     0.00353424
O       2.39982210     0.59639039     6.76119729     0.00160385     0.00502419    -0.00341520
O       2.77595877     4.91217550     2.50226183    -0.00160385    -0.00502419     0.00341520
