# total energy = -19936.03452129 eV

CRYSTAL
PRIMVEC
        7.05196308     0.00000000     0.00000000
        0.00002661     4.50325257     0.00000000
        0.00000000     0.00000000    10.77031512
PRIMCOORD
24 1
Ti      2.55601300     2.66862328     3.99571011     0.40419119     0.28744198     0.97602275
Ti      4.49597622     1.83462923     6.77460512    -0.40419119    -0.28744198    -0.97602275
Ti      6.08187321     1.83463074     1.38940448     0.40381478    -0.28728592    -0.97635339
Ti      0.97011607     2.66862194     9.38091081    -0.40381478     0.28728592     0.97635339
Ti      2.55599993     0.41699706     1.38944768     0.40419119     0.28744198    -0.97602275
Ti      4.49598930     4.08625557     9.38086767    -0.40419119    -0.28744198     0.97602275
Ti      0.97010294     0.41699543     6.77456192    -0.40381478     0.28728592    -0.97635339
Ti      6.08188628     4.08625720     3.99575325     0.40381478    -0.28728592     0.97635339
O       2.23200008     1.58567174     5.49600939     1.27966449     0.60500754    -0.66319214
O       4.81998920     2.91758072     5.27430585    -1.27966449    -0.60500754     0.66319214
O       1.29404118     1.58568992     0.11088644    -1.27915746     0.60498620    -0.66366214
O       5.75794816     2.91756259    10.65942845     1.27915746    -0.60498620     0.66366214
O       4.81997613     0.66595437     0.11085148    -1.27966449    -0.60500754    -0.66319214
O       2.23201315     3.83729808    10.65946340     1.27966449     0.60500754     0.66319214
O       5.75793502     0.66593625     5.49604428     1.27915746    -0.60498620    -0.66366214
O       1.29405414     3.83731627     5.27427089    -1.27915746     0.60498620     0.66366214
O       0.25623022     2.73913349     2.90933081    -1.52044633     0.58762636     0.86817187
O       6.79575906     1.76411896     7.86098436     1.52044633    -0.58762636    -0.86817187
O       3.78221987     1.76407710     2.47586101    -1.51997299    -0.58740113    -0.86854931
O       3.26976935     2.73917542     8.29445399     1.51997299     0.58740113     0.86854931
O       0.25621709     0.48750715     2.47582663    -1.52044633     0.58762636    -0.86817187
O       6.79577214     4.01574530     8.29448837     1.52044633    -0.58762636     0.86817187
O       3.26975628     0.48754907     7.86101868     1.51997299     0.58740113    -0.86854931
O       3.78223295     4.01570338     2.90929643    -1.51997299    -0.58740113     0.86854931
