# total energy = -19958.38228089 eV

CRYSTAL
PRIMVEC
        5.20156977     0.00000000     0.00000000
        1.09627330     5.42641305     0.00000000
        0.00000000     0.00000000     9.35702908
PRIMCOORD
24 1
Ti      2.53496932     3.21568735     3.47139117     1.00142911    -1.39754035     0.77425715
Ti      3.76287350     2.21072583     5.88563828    -1.00142911     1.39754035    -0.77425715
Ti      4.93264087     2.21072778     1.20708617    -1.72047566    -0.47226606     0.78928371
Ti      1.36520197     3.21568562     8.14994339     1.72047566     0.47226606    -0.78928371
Ti      1.98683279     0.50248103     1.20712369     1.00142911    -1.39754035    -0.77425715
Ti      4.31101003     4.92393232     8.14990587    -1.00142911     1.39754035     0.77425715
Ti      0.81706536     0.50247893     5.88560076     1.72047566     0.47226606     0.78928371
Ti      5.48077747     4.92393442     3.47142869    -1.72047566    -0.47226606    -0.78928371
O       2.03234604     1.91073231     4.77482046     0.29816529     0.71050560    -0.59852656
O       4.26549677     3.51568088     4.58220899    -0.29816529    -0.71050560     0.59852656
O       1.34050647     1.91075416     0.09633587     0.26290388    -0.47018167     0.40374485
O       4.95733640     3.51565907     9.26069332    -0.26290388     0.47018167    -0.40374485
O       3.71736023     0.80247439     0.09630550    -0.29816529    -0.71050560    -0.59852656
O       2.58048258     4.62393879     9.26072369     0.29816529     0.71050560     0.59852656
O       4.40919986     0.80245259     4.77485084    -0.26290388     0.47018167     0.40374485
O       1.88864290     4.62396066     4.58217862     0.26290388    -0.47018167    -0.40374485
O       0.85580057     3.30065196     2.52756709    -0.15115855     0.09126108    -0.10565387
O       5.44204224     2.12576122     6.82946237     0.15115855    -0.09126108     0.10565387
O       3.21922765     2.12571054     2.15097741     0.82777417    -0.14424460    -0.55569736
O       3.07861516     3.30070265     7.20605189    -0.82777417     0.14424460     0.55569736
O       0.30766403     0.58744548     2.15094751    -0.15115855     0.09126108     0.10565387
O       5.99017879     4.83896776     7.20608179     0.15115855    -0.09126108    -0.10565387
O       2.53047862     0.58749611     6.82949221    -0.82777417     0.14424460    -0.55569736
O       3.76736420     4.83891708     2.52753719     0.82777417    -0.14424460     0.55569736
