# total energy = -4976.58905092 eV

CRYSTAL
PRIMVEC
        4.33558916     0.00000000     0.00000000
       -0.00000704     2.89039244     0.00000000
       -2.16782013    -1.44524033     4.80310419
PRIMCOORD
6 1
Ti     -0.00018634     2.16789933     1.20077580    -0.00918116    -0.01330392    17.82505757
Ti      2.16794838    -0.72274752     3.60232774     0.00918116     0.01330392   -17.82505757
O       0.00004562     0.72259026     0.78238631     0.00743152     0.01335560    -8.87257871
O       2.16771632     0.72256150     4.02071728    -0.00743152    -0.01335560     8.87257871
O      -0.00001858    -0.72259292     3.18393830    -0.00153109    -0.00022806    -0.11093877
O       2.16778047     2.16774464     1.61916534     0.00153109     0.00022806     0.11093877
