# total energy = -4986.89055445 eV

CRYSTAL
PRIMVEC
        4.13120955     0.00000000     0.00000000
        1.40294966     3.88569487     0.00000000
       -2.76711729    -1.94287390     5.35749226
PRIMCOORD
6 1
Ti      1.05209314     2.91442020     1.33937312     0.00023063    -0.00023063     0.00000000
Ti      1.71494806    -0.97159973     4.01811925    -0.00023063     0.00023063    -0.00000000
O       0.35078045     0.97141837     0.87269177    -0.00068751    -0.00106829    -1.53095443
O       2.41626055     0.97140196     4.48480072     0.00068751     0.00106829     1.53095443
O      -0.35074695    -0.97139489     3.55143790    -0.00106829    -0.00068751    -1.53095443
O       3.11778788     2.91421518     1.80605459     0.00106829     0.00068751     1.53095443
