# total energy = -19929.96381978 eV

CRYSTAL
PRIMVEC
        7.30039879     0.00000000     0.00000000
        0.00002569     4.18375575     0.00000000
        0.00000000     0.00000000    11.04489319
PRIMCOORD
24 1
Ti      2.64605875     2.47928992     4.09757675     0.23875736     0.27548069     1.55550282
Ti      4.65436590     1.70446618     6.94731690    -0.23875736    -0.27548069    -1.55550282
Ti      6.29613304     1.70446766     1.42482598     0.23891574    -0.27553777    -1.55526525
Ti      1.00429162     2.47928855     9.62006779    -0.23891574     0.27553777     1.55526525
Ti      2.64604602     0.38741210     1.42487025     0.23875736     0.27548069    -1.55550282
Ti      4.65437863     3.79634411     9.62002352    -0.23875736    -0.27548069     1.55550282
Ti      1.00427889     0.38741045     6.94727264    -0.23891574     0.27553777    -1.55526525
Ti      6.29614577     3.79634571     4.09762102     0.23891574    -0.27553777     1.55526525
O       2.31063143     1.47317159     5.63612464     1.69806360     0.54395024    -0.74245234
O       4.98979323     2.71058445     5.40876902    -1.69806360    -0.54395024     0.74245234
O       1.33962886     1.47318845     0.11371335    -1.69763243     0.54395693    -0.74303109
O       5.96079585     2.71056765    10.93117996     1.69763243    -0.54395693     0.74303109
O       4.98978050     0.61870657     0.11367752    -1.69806360    -0.54395024    -0.74245234
O       2.31064416     3.56504952    10.93121579     1.69806360     0.54395024     0.74245234
O       5.96078312     0.61868972     5.63616046     1.69763243    -0.54395693    -0.74303109
O       1.33964142     3.56506638     5.40873313    -1.69763243     0.54395693     0.74303109
O       0.26525599     2.54479744     2.98350130    -1.47624571     0.55307895     0.73662519
O       7.03516867     1.63895865     8.06139235     1.47624571    -0.55307895    -0.73662519
O       3.91546439     1.63891953     2.53898061    -1.47585593    -0.55285012    -0.73721705
O       3.38496026     2.54483656     8.50591281     1.47585593     0.55285012     0.73721705
O       0.26524326     0.45291951     2.53894536    -1.47624571     0.55307895    -0.73662519
O       7.03518140     3.73083659     8.50594807     1.47624571    -0.55307895     0.73662519
O       3.38494753     0.45295863     8.06142755     1.47585593     0.55285012    -0.73721705
O       3.91547712     3.73079747     2.98346605    -1.47585593    -0.55285012     0.73721705
