# total energy = -4953.07204539 eV

CRYSTAL
PRIMVEC
        5.80360406     0.00000000     0.00000000
       -0.00000758     2.48725905     0.00000000
       -2.90183532    -1.24371950     6.29820530
PRIMCOORD
6 1
Ti     -0.00024798     1.86552152     1.57455127    -0.02027367    -0.01671809    36.86030170
Ti      2.90200885    -0.62198192     4.72365392     0.02027367     0.01671809   -36.86030170
O       0.00006166     0.62179952     1.02592617     0.01813965     0.01677774   -31.67212984
O       2.90169903     0.62174002     5.27227907    -0.01813965    -0.01677774    31.67212984
O      -0.00002426    -0.62184454     4.17502882    -0.00159306    -0.00015658    -1.52172340
O       2.90178490     1.86538402     2.12317642     0.00159306     0.00015658     1.52172340
