# total energy = -19515.78514421 eV

CRYSTAL
PRIMVEC
        5.17600016     0.00000000     0.00000000
        0.00000000     5.50899976     0.00000000
        0.00000000     0.00000000     9.26300011
PRIMCOORD
23 1
Ti      1.88768601     3.23396098     3.43087302     0.93151796    -0.16203381     2.21328973
Ti      3.20443501     2.28512702     5.90387003     1.65186137    -0.05932514    -3.09093226
Ti      4.32921702     2.21678102     1.48205699     0.68309840    -0.45282491     0.30071299
Ti      0.85621498     3.40659500     7.75914398    -0.94907166    -0.92131659     1.84967133
Ti      2.05854501     0.20206998     1.46536901    -1.35249667     1.00672764    -1.99598695
Ti      3.31056002     5.21566099     7.86358701    -0.94707571     0.51628465     1.28405413
Ti      0.63831000     0.59145898     5.80383198    -1.15862745     0.35632186    -2.69367250
Ti      4.59938799     4.92535297     3.30990802    -0.33690386     1.02318322     3.03011536
O       1.72616000     1.88845802     4.73552498    -1.09720660    -0.16738376    -0.16954426
O       3.57649498     3.59373902     4.43317802    -1.07701340    -0.26844101     0.44985195
O       5.08848599     2.44201902     9.21457600     1.83852662     2.00720056    -2.62610337
O       3.41093198     0.71362399     0.16330902     0.10834787     0.39868029     0.32554883
O       1.77539502     4.53018902     9.24558102    -0.53163594    -0.48110192    -1.44298102
O       4.12765902     0.77764401     4.96283402     1.05674770    -1.13414154    -1.21949679
O       0.91371999     4.55219300     4.59555701     0.29487119     1.09463446    -0.63600477
O       0.15214502     3.33028902     2.62499502     0.90371096     0.07008547    -1.41900419
O       4.95910400     2.28915601     6.56492698     1.23473213     0.11685128     1.54035362
O       2.95404199     1.57953699     2.51376403    -2.35229544     0.38781866    -0.03923222
O       2.51448900     3.71155700     6.92296799     0.15197899    -0.51899125     0.86614764
O       0.24648002     0.89371100     2.16172399     1.30449030    -2.52854926    -0.01932442
O       5.12125900     4.81087500     7.09630000    -1.47084433     0.83234893     1.36203315
O       2.26313298     0.85152298     6.83901799     0.36216315     0.20426625     1.81580963
O       2.98423102     4.40749901     2.23362801     0.75112441    -1.32029384     0.31469440
