# total energy = -4913.61226139 eV

CRYSTAL
PRIMVEC
        6.16110010     0.00000000     0.00000000
       -0.00000762     2.05370003     0.00000000
       -3.08058926    -1.02698365     6.98927503
PRIMCOORD
6 1
Ti     -0.00026368     1.54032400     1.74731833    -0.04371468    -0.02744345    81.25828825
Ti      3.08076673    -0.51360767     5.24195567     0.04371468     0.02744345   -81.25828825
O       0.00006505     0.51340275     1.13849560     0.04186015     0.02752675   -78.33092912
O       3.08043783     0.51331352     5.85077845    -0.04186015    -0.02752675    78.33092912
O      -0.00002826    -0.51348900     4.63313295    -0.00120328     0.00005631    -0.70005200
O       3.08053103     1.54020521     2.35614111     0.00120328    -0.00005631     0.70005200
