# total energy = -19074.04620026 eV

CRYSTAL
PRIMVEC
        5.93400000     0.00000000     0.00000000
        0.00000000     9.29699974     0.00000000
        0.00000000     0.00000000     4.64899994
PRIMCOORD
22 1
Ti      4.39149700     6.89838400     2.40973101     0.05039004    -0.16689397    -0.29924849
Ti      4.40167398     2.38152702     2.20306602    -0.59545820    -1.18476400    -0.10549574
Ti      1.49902902     7.14555899     2.56678102     0.17552696    -0.60225286    -0.21862998
Ti      1.62293000     2.46969499     2.11491599    -0.20292773    -0.08376657     0.33423479
Ti      3.01524499     4.61004700     4.53618602    -0.40565261     0.22692128    -0.54262690
Ti      3.00233899     9.22268802     4.63469898     0.38953616     1.29417426     0.82748055
Ti      5.76282799     4.57514098     4.46231298     0.98067413    -1.05503612    -0.26997210
Ti      0.00824299     9.06902997     0.30762100    -0.24307244     1.38189004     0.72227483
O       4.53513899     5.49645302     0.80654000    -0.86233238     1.03892070     1.48466556
O       4.50295300     0.82684998     1.03845400     0.38898620    -0.02947257    -0.65049191
O       1.57999198     0.69145099     1.18149098    -1.18990364     1.43482625    -1.09093362
O       4.54456703     8.24167399     3.94262499    -0.28461711     0.56708349    -1.02276182
O       4.35140098     3.95681102     3.28483301     0.23833672     0.12336492     1.68049139
O       1.41736300     8.45548700     3.76874598     0.18544551     1.28130639     0.53280168
O       1.55421501     3.95829499     3.52419899    -0.66393082    -0.87353828    -0.24941175
O       2.87959902     6.23380098     3.41021601     0.48550699    -0.71969884     0.13270702
O       2.86173500     1.61691299     3.23641499     0.41524206    -0.78654754     0.65303808
O       0.06407199     6.14270698     3.41054499     0.14484006    -0.14291174    -0.87213626
O       2.99529199     7.98505001     1.46970901     0.14734252    -1.71997172     0.48219875
O       3.06182798     3.06076402     1.02289502    -0.59721375     0.56753704     0.47081544
O       0.02462500     7.84091001     1.59822399    -0.75236574    -0.65150930    -0.56792399
O       5.76585298     3.23598302     1.36450799     2.19564732     0.10033888    -1.43107552
