# total energy = -18996.62775641 eV

CRYSTAL
PRIMVEC
        7.60600008     0.00000000     0.00000000
        0.00000000     7.60600008     0.00000000
       -1.89786986    -1.89786986     4.85670466
PRIMCOORD
22 1
Ti      4.49225399     6.07174299     0.60962002     0.08431422     2.15425203    -3.41286715
Ti      4.54434620     3.21507623     3.34031481    -5.51572332     7.42861424    -8.18300653
Ti      1.17607300     5.85550201     0.43219700     1.30777848    12.42061729    14.91690690
Ti      0.38162702     2.90856698     0.55634701    -7.59794999     5.58382004    20.69454243
Ti     -1.69369275     2.58542521     4.42120681   -36.98067617    27.32680242    29.11243449
Ti     -1.32422776     1.47542523     3.48901981   -11.96041665   -38.77229608   -44.02522479
Ti     -0.20923679     2.49827025     3.90678181    53.77042081    13.11320974    -7.11900266
Ti      0.15939824    -0.89243378     4.21055283    14.50324607    -3.91996781    -7.74475129
O       4.07037097     5.27177701     1.98396901     0.34632772    -0.97253479     1.52992368
O       4.34492200     0.45050902     0.13191801    -2.69871855    -2.42526929     0.55670009
O       1.53559300     4.21144598     1.21240202     1.27322027    -1.23404076    -0.75313862
O       0.76928899     1.46468500     0.23008902    -0.99844355   -16.36043145     8.23121885
O      -1.02052378     4.52039421     3.54415781    -1.70793536     1.86592302    -2.71331034
O       4.52480421     1.56539722     2.74466084     0.14017043    -3.00286989    -1.71972824
O       0.76289325     3.84411124     4.42225083     9.20038112     3.67098929     0.52948752
O       0.77052923     0.80366424     3.90980881    -1.04557214    -3.18103172     1.44481962
O       3.04739621     2.62635622     3.75684780    -3.59518825     2.18977004     3.59672912
O       0.65139201     2.66644299     2.36198001     1.92007099    -0.84086135    -1.50203851
O       7.14654501     6.53010002     0.55923700    -5.96339754    -0.30126758    -0.31265654
O       6.26293700     2.57291498     1.66338799     0.45470516     0.07031841    -1.00203409
O       1.29167801     6.48782501     2.02519198    -0.15443543     1.93483684     3.00600740
O       5.88428121    -0.19833278     3.94561283    -4.78217832    -6.74858240    -5.13101159
