# total energy = -4989.98847067 eV

CRYSTAL
PRIMVEC
        3.67462249     0.00000000     0.00000000
        0.36653736     3.65629605     0.00000000
       -2.02061252    -1.82817752     4.69552371
PRIMCOORD
6 1
Ti      0.27476221     2.74236113     1.17388070     0.00192961    -0.00192961    -0.00000000
Ti      1.74578480    -0.91424288     3.52164245    -0.00192961     0.00192961     0.00000000
O       0.09167308     0.91406823     0.76486236    -0.00010104     0.00053787     0.51508626
O       1.92887383     0.91404992     3.93066089     0.00010104    -0.00053787    -0.51508626
O      -0.09165274    -0.91404983     3.11262411     0.00053787    -0.00010104     0.51508626
O       2.11219959     2.74216793     1.58289913    -0.00053787     0.00010104    -0.51508626
