# total energy = -4920.25171129 eV

CRYSTAL
PRIMVEC
        4.67216767     0.00000000     0.00000000
       -0.00000646     2.24956207     0.00000000
       -2.33611001    -1.12484388     5.03342842
PRIMCOORD
6 1
Ti     -0.00019960     1.68724614     1.25835684    -0.05199595    -0.03346523    64.88921609
Ti      2.33625076    -0.56252810     3.77507095     0.05199595     0.03346523   -64.88921609
O       0.00004972     0.56237973     0.81990424     0.05431920     0.03383033   -53.64308174
O       2.33600129     0.56233822     4.21352360    -0.05431920    -0.03383033    53.64308174
O      -0.00001909    -0.56240531     3.33661835    -0.00025531    -0.00010464     0.54125753
O       2.33607005     1.68712325     1.69680949     0.00025531     0.00010464    -0.54125753
