# total energy = -19922.64946290 eV

CRYSTAL
PRIMVEC
        6.60296645     0.00000000     0.00000000
        0.00003286     6.35826212     0.00000000
        0.00000000     0.00000000    11.28331073
PRIMCOORD
24 1
Ti      2.39327726     3.76790018     4.18602790     0.21376957    -0.89503271     0.74485195
Ti      4.20972205     2.59036180     7.09728321    -0.21376957     0.89503271    -0.74485195
Ti      5.69464541     2.59036399     1.45558258     0.21348340     0.89505431    -0.74506766
Ti      0.90835396     3.76789832     9.82772872    -0.21348340    -0.89505431     0.74506766
Ti      2.39326090     0.58876925     1.45562785     0.21376957    -0.89503271    -0.74485195
Ti      4.20973848     5.76949293     9.82768346    -0.21376957     0.89503271     0.74485195
Ti      0.90833753     0.58876694     7.09723801    -0.21348340    -0.89505431    -0.74506766
Ti      5.69466178     5.76949531     4.18607317     0.21348340     0.89505431     0.74506766
O       2.08989216     2.23885210     5.75778724     1.16771527     1.35121600    -0.42566737
O       4.51310721     4.11940989     5.52552387    -1.16771527    -1.35121600     0.42566737
O       1.21165290     2.23887781     0.11616801    -1.16748336     1.35114529    -0.42626387
O       5.39134654     4.11938424    11.16714284     1.16748336    -1.35114529     0.42626387
O       4.51309078     0.94027876     0.11613143    -1.16771527    -1.35121600    -0.42566737
O       2.08990859     5.41798322    11.16717943     1.16771527     1.35121600     0.42566737
O       5.39133011     0.94025311     5.75782389     1.16748336    -1.35114529    -0.42626387
O       1.21166914     5.41800894     5.52548729    -1.16748336     1.35114529     0.42626387
O       0.23992114     3.86745547     3.04790380    -0.16253697    -0.12408534     0.13021125
O       6.36307823     2.49080658     8.23540732     0.16253697     0.12408534    -0.13021125
O       3.54141022     2.49074740     2.59378764    -0.16231946     0.12425658    -0.13050873
O       3.06158910     3.86751465     8.68952335     0.16231946    -0.12425658     0.13050873
O       0.23990471     0.68832435     2.59375157    -0.16253697    -0.12408534    -0.13021125
O       6.36309460     5.66993770     8.68955935     0.16253697     0.12408534     0.13021125
O       3.06157273     0.68838353     8.23544332     0.16231946    -0.12425658    -0.13050873
O       3.54142665     5.66987846     3.04786779    -0.16231946     0.12425658     0.13050873
