# total energy = -19892.54289100 eV

CRYSTAL
PRIMVEC
        8.26826463     0.00000000     0.00000000
        0.00002571     2.93331131     0.00000000
        0.00000000     0.00000000    13.15411164
PRIMCOORD
24 1
Ti      2.99686329     1.73827747     4.88008171    -0.14886384     0.33561882     1.67761690
Ti      5.27142671     1.19503356     8.27403032     0.14886384    -0.33561882    -1.67761690
Ti      7.13085456     1.19503451     1.69692175    -0.14835965    -0.33571112    -1.67810258
Ti      1.13743549     1.73827663    11.45719040     0.14835965     0.33571112     1.67810258
Ti      2.99685077     0.27162187     1.69697450    -0.14890472     0.33466005    -1.67795860
Ti      5.27143928     2.66168927    11.45713765     0.14890472    -0.33466005     1.67795860
Ti      1.13742292     0.27162087     8.27397757     0.14827969     0.33465414    -1.67758810
Ti      7.13086713     2.66169027     4.88013446    -0.14827969    -0.33465414     1.67758810
O       2.61696688     1.03286869     6.71244264     3.80851945     0.05136140    -0.41859786
O       5.65132317     1.90044240     6.44166940    -3.80851945    -0.05136140     0.41859786
O       1.51723162     1.03288059     0.13542898    -3.80799571     0.05135112    -0.41865700
O       6.75105848     1.90043049    13.01868267     3.80799571    -0.05135112     0.41865700
O       5.65131060     0.43378668     0.13538626    -3.80805253    -0.05102459    -0.41815229
O       2.61697945     2.49952434    13.01872539     3.80805253     0.05102459     0.41815229
O       6.75104591     0.43377483     6.71248530     3.80904190    -0.05100556    -0.41885626
O       1.51724402     2.49953625     6.44162673    -3.80904190     0.05100556     0.41885626
O       0.30042061     1.78420621     3.55325378    -0.57790759     0.30073305     2.61274263
O       7.96786944     1.14910481     9.60085820     0.57790759    -0.30073305    -2.61274263
O       4.43456386     1.14907762     3.02384402    -0.57709126    -0.30071737    -2.61173964
O       3.83372619     1.78423346    10.13026779     0.57709126     0.30071737     2.61173964
O       0.30040804     0.31755056     3.02380204    -0.57779369     0.30138045    -2.61108864
O       7.96788201     2.61576052    10.13030977     0.57779369    -0.30138045     2.61108864
O       3.83371368     0.31757775     9.60090013     0.57720336     0.30123082    -2.61340880
O       4.43457637     2.61573328     3.55321180    -0.57720336    -0.30123082     2.61340880
