# total energy = -19930.95292355 eV

CRYSTAL
PRIMVEC
        6.12454333     0.00000000     0.00000000
        0.97231892     6.44543968     0.00000000
        0.00000000     0.00000000    10.99271560
PRIMCOORD
24 1
Ti      2.79604765     3.81956152     4.07821912    -0.07379609    -1.56139245     0.76867194
Ti      4.30081452     2.62587798     6.91449673     0.07379609     1.56139245    -0.76867194
Ti      5.67814694     2.62588015     1.41809485     0.04615235     0.02569716    -0.36480754
Ti      1.41871525     3.81955959     9.57462113    -0.04615235    -0.02569716     0.36480754
Ti      2.30988833     0.59684180     1.41813893    -0.07379609    -1.56139245    -0.76867194
Ti      4.78697386     5.84859789     9.57457705     0.07379609     1.56139245     0.76867194
Ti      0.93255589     0.59683943     6.91445265    -0.04615235    -0.02569716    -0.36480754
Ti      6.16430630     5.84860025     4.07826320     0.04615235     0.02569716     0.36480754
O       2.28082663     2.26954880     5.60949868     1.65464948     1.76595232    -0.40646919
O       4.81603555     4.17589069     5.38321711    -1.65464948    -1.76595232     0.40646919
O       1.46622477     2.26957486     0.11317616    -0.99518236     0.59359955     0.56669886
O       5.63063747     4.17586470    10.87953938     0.99518236    -0.59359955    -0.56669886
O       4.32987621     0.95317078     0.11314051    -1.65464948    -1.76595232    -0.40646919
O       2.76698597     5.49226871    10.87957503     1.65464948     1.76595232     0.40646919
O       5.14447813     0.95314479     5.60953440     0.99518236    -0.59359955     0.56669886
O       1.95238399     5.49229478     5.38318145    -0.99518236     0.59359955    -0.56669886
O       0.81393830     3.92048178     2.96940678     0.43461764     0.79772645     1.08968252
O       6.28292387     2.52495766     8.02330907    -0.43461764    -0.79772645    -1.08968252
O       3.66569295     2.52489771     2.52698611     0.62396120     1.14258890     0.33805108
O       3.43116922     3.92054172     8.46572955    -0.62396120    -1.14258890    -0.33805108
O       0.32777896     0.69776186     2.52695096     0.43461764     0.79772645    -1.08968252
O       6.76908321     5.74767757     8.46576465    -0.43461764    -0.79772645     1.08968252
O       2.94500988     0.69782181     8.02334410    -0.62396120    -1.14258890     0.33805108
O       4.15185229     5.74761762     2.96937169     0.62396120     1.14258890    -0.33805108
