# total energy = -19069.20973107 eV

CRYSTAL
PRIMVEC
        5.93400000     0.00000000     0.00000000
        0.00000000     9.29699974     0.00000000
        0.00000000     0.00000000     4.64899994
PRIMCOORD
22 1
Ti      4.35526403     6.96436103     2.20736701    -3.99077782     1.47086233    -0.24538823
Ti      4.48324999     2.33894498     2.21034400    -0.46650730    -0.61694492     1.48517618
Ti      1.21960301     6.81773501     2.66655798     2.63014772     0.11704309     1.76240214
Ti      1.67038699     2.35574498     1.70066799    -0.39687203     0.02062694    -0.16803374
Ti      3.08526598     4.54729001     4.40840998    -1.29435963     2.11733381     0.21828160
Ti      3.14629298     0.21387699     0.16450898    -0.61632477    -1.58416009    -1.89416043
Ti      5.93196801     4.62427901     0.17195001    -2.62168776     1.70610319     0.45868960
Ti      0.05927399     8.88038998     0.24602398    -1.33185944     1.28532143    -2.17079992
O       4.04612698     5.58087097     0.87347600     1.36895945     0.65356155     2.75596290
O       4.66814198     0.85016400     0.92249798     1.91313569     0.58549157     0.90439204
O       1.28320202     1.06319002     0.34668502     0.39476116     1.27055069     2.10931530
O       4.34689599     8.38134398     3.79078700     1.36924073     1.55087072     1.05548915
O       4.53503702     4.09209598     3.57406098     0.91511380    -2.51713073    -1.47217873
O       1.30607200     8.33398002     3.75099298     0.25690652     0.18392522    -0.19801024
O       1.39903299     3.73202298     4.38171701     1.62738729    -1.28940871    -1.84125122
O       2.84367403     6.53160500     3.62359398    -0.36968363    -3.17922295    -2.41894155
O       3.09650798     1.41822599     3.18508802    -0.33996810     1.69059197    -1.79637877
O       5.50421002     6.28828899     3.33849799     2.81416319    -2.85593848     2.35639018
O       2.88703597     8.36688902     1.52134199    -0.13161431    -2.07032400     0.30212427
O       3.37577101     2.76029702     0.87539797    -1.51731858     1.93766891    -0.40475195
O       0.06381798     7.83631300     1.68060800    -0.93278757     0.53248029    -1.43962573
O       0.04255802     3.50250801     1.67778298     0.71994540    -1.00930183     0.64129713
