# total energy = -19960.72483733 eV

CRYSTAL
PRIMVEC
        5.28586374     0.00000000     0.00000000
        0.56120168     5.59769592     0.00000000
        0.00000000     0.00000000     9.47240901
PRIMCOORD
24 1
Ti      2.24843903     3.31718945     3.51419626     0.41360478    -0.77306956     0.51672096
Ti      3.59862656     2.28050652     5.95821307    -0.41360478     0.77306956    -0.51672096
Ti      4.78735045     2.28050842     1.22197056    -0.55631443    -0.25465424     0.21833842
Ti      1.05971515     3.31718782     8.25043893     0.55631443     0.25465424    -0.21833842
Ti      1.96783829     0.51834154     1.22200856     0.41380018    -0.77174904    -0.51510863
Ti      3.87922731     5.07935464     8.25040093    -0.41380018     0.77174904     0.51510863
Ti      0.77911434     0.51833948     5.95817512     0.55517620     0.25363376     0.21735240
Ti      5.06795120     5.07935665     3.51423426    -0.55517620    -0.25363376    -0.21735240
O       1.87061797     1.97104391     4.83369793     0.47668939     0.62382339    -0.28398359
O       3.97644763     3.62665211     4.63871140    -0.47668939    -0.62382339     0.28398359
O       1.16756448     1.97106654     0.09752376    -0.14697022    -0.03914712     0.29741555
O       4.67950117     3.62662953     9.37488535     0.14697022     0.03914712    -0.29741555
O       3.69584688     0.82780399     0.09749305    -0.47685368    -0.62341613    -0.28387329
O       2.15121871     4.76989203     9.37491606     0.47685368     0.62341613     0.28387329
O       4.39890043     0.82778140     4.83372870     0.14722605     0.03902268     0.29785701
O       1.44816511     4.76991462     4.63868068    -0.14722605    -0.03902268    -0.29785701
O       0.53340231     3.40483610     2.55873405    -0.04866303     0.11844048     0.09882347
O       5.31366323     2.19285992     6.91367528     0.04866303    -0.11844048    -0.09882347
O       3.05483189     2.19280779     2.17750073     0.41180269     0.16145634    -0.15962006
O       2.79223370     3.40488818     7.29490849    -0.41180269    -0.16145634     0.15962006
O       0.25280157     0.60598797     2.17747045    -0.04845760     0.11866391    -0.09844038
O       5.59426397     4.99170800     7.29493872     0.04845760    -0.11866391     0.09844038
O       2.51163296     0.60604010     6.91370551    -0.41205749    -0.16146225    -0.15920225
O       3.33543264     4.99165592     2.55870382     0.41205749     0.16146225     0.15920225
