# total energy = -19961.46018531 eV

CRYSTAL
PRIMVEC
        7.60600008     0.00000000     0.00000000
        0.00000000     7.60600008     0.00000000
       -1.89786986    -1.89786986     4.85670466
PRIMCOORD
24 1
Ti      3.83628698     6.66881199     1.18001002    -1.33682064    -0.55336100    -0.16472576
Ti      3.75134901     2.76488202     1.25151499     1.06857350     0.64460023    -1.56813774
Ti     -0.10228102     6.71544600     1.18675301     1.40208247     0.02929722     0.39884664
Ti      0.00697900     2.85501900     1.23780099    -0.86335234     0.15349672     0.49943646
Ti      5.64419322     2.89062724     3.65315879     1.05442394    -0.12213156     0.02858888
Ti      5.65790024    -0.87236780     3.60561582     0.58720727     0.14151743     0.73026967
Ti      1.98137324     2.76326623     3.62888681    -1.58080660    -0.92237794     1.38564617
Ti      1.95668421    -1.04729279     3.57995284    -0.80981963     1.29641626    -0.06455785
O       3.90945003     4.70832701     0.81744502    -0.60794631     0.13496265    -0.29061216
O       3.93686601     0.94424298     0.76328400    -0.45194688    -0.31016335     0.01191887
O      -0.06691901     4.82118099     0.85230002     0.25440330     0.07761983    -0.19047948
O      -0.05814499     1.01495599     0.80158098    -0.01761541    -0.44853657    -0.32551669
O       5.48738922     4.87448724     4.01517779     0.66869507    -1.14935270     0.48875532
O       5.62240022     1.00473122     4.11438281     0.06340934    -0.04717925    -0.15069061
O       2.08101822     4.72833224     4.06291381    -0.51658984    -0.39096852    -0.23353647
O       2.12383924     0.90373325     4.04804980    -1.03867850     0.48995140     0.57808988
O       3.77049120     2.68030224     3.21234584     0.40205281     0.66025594    -0.05318226
O       3.77015925    -0.90299880     3.22511980     1.39716626    -0.02469160    -0.71200326
O      -0.00161875     2.73582220     3.22424682    -0.03468651     0.63750707     0.40224821
O       0.04318822    -0.80984879     3.26334482    -0.94118531    -0.53846325    -0.65386237
O       5.68656302     6.69911098     1.62348897     0.40965942     0.05402327     0.54181160
O       5.64495900     2.81486202     1.77033698     0.62041796     0.31580358    -0.72363957
O       1.94402698     6.78096798     1.58453200    -0.40590766    -0.60267966    -0.05693067
O       1.86045899     2.73824202     1.59865902     0.67726482     0.47445304     0.12226320
