# total energy = -19077.75604840 eV

CRYSTAL
PRIMVEC
        7.60629642    -0.00000847    -0.00005503
       -0.00000847     7.60629642    -0.00005503
       -1.90157093    -1.90157093     4.85369047
PRIMCOORD
22 1
Ti      3.80306845     6.66343982     1.15273305     0.00002083     0.00837434     0.02425734
Ti      3.80297308     2.84926059     1.21270770     0.00004294    -0.00312363    -0.02887556
Ti     -0.00007760     6.66344976     1.15273273     0.00000077     0.00840931     0.02435941
Ti     -0.00016521     2.84927776     1.21272425    -0.00007096    -0.00323651    -0.02883005
Ti      5.70491604     2.84858818     3.62579975    -0.00004397     0.01251716    -0.00006505
Ti      5.70480454    -0.94159833     3.64824213    -0.00003445    -0.01203971     0.00113231
Ti      1.90176330     2.84859478     3.62584432     0.00006942     0.01253902    -0.00001877
Ti      1.90163108    -0.94159658     3.64828548    -0.00002648    -0.01203148     0.00119839
O       3.80319405     4.75793519     0.77733707    -0.00001286     0.00863660     0.00011107
O       3.80319353     0.94038846     0.83715154    -0.00008099    -0.00503165    -0.00596445
O       0.00004911     4.75792951     0.77734662     0.00008382     0.00894898     0.00022034
O       0.00005619     0.94040092     0.83715340     0.00009410    -0.00536512    -0.00558521
O       5.70464567     4.76932107     4.00434093     0.00003625    -0.00325913     0.01736832
O       5.70463779     0.93269772     4.04706864    -0.00002905    -0.00533813    -0.00883071
O       1.90153423     4.76932539     4.00440842    -0.00005271    -0.00315629     0.01707727
O       1.90151593     0.93270531     4.04710312    -0.00011159    -0.00561915    -0.00876772
O       3.80314962     2.85373031     3.22204232     0.00004782     0.00353655    -0.01352015
O       0.00001207     2.85373377     3.22207943    -0.00003111     0.00355018    -0.01353686
O       5.70470344     6.65571229     1.75425734     0.00014192    -0.01340677     0.01909379
O       5.70472085     2.84953684     1.62218465    -0.00000283     0.00923643    -0.00513475
O       1.90155788     6.65570516     1.75430877    -0.00003780    -0.01337411     0.01947894
O       1.90156832     2.84954996     1.62221641    -0.00000334     0.00923335    -0.00516792
