# total energy = -19068.30700403 eV

CRYSTAL
PRIMVEC
        5.17600016     0.00000000     0.00000000
        0.00000000     5.50899976     0.00000000
        0.00000000     0.00000000     9.26300011
PRIMCOORD
22 1
Ti      1.87643602     3.35848702     2.85601597     1.17949761     1.15445506     2.51409579
Ti      3.46114498     2.57020702     5.90777202    -0.23675189    -1.20163790    -2.64097644
Ti      4.47800002     2.24611501     1.46160900    -2.70086877     1.86846018    -2.24819992
Ti      1.06543600     2.09768100     7.91906600     0.67049022    -0.25355046     0.35005223
Ti      1.69667699     0.75767699     1.40655202     3.36938798    -1.72644011    -3.55276066
Ti      3.29341701     0.18602501     8.02419003    -2.34653951     0.29585978    -0.27998552
Ti      0.67728301     4.79812802     6.55382399    -0.70224078     2.49960197     0.04375916
Ti      4.54793402     5.22439300     3.49306701    -2.79008068    -0.08559746     2.67916968
O       3.29056898     3.90181098     4.31674299    -0.72745174    -1.68207570     0.56449645
O       1.06331702     2.44843799     0.67420902     0.95791549     0.66305947    -2.96269227
O       4.93601801     3.02047802     6.82796501     2.41126629     5.73629346    -1.19750845
O       3.39819199     0.93474399     0.50430301     1.31578104     0.50022913    -1.73056210
O       1.15632500     0.26236899     8.65157098     1.31976497    -1.26244297     1.13762924
O       4.29292298     1.07450700     4.68255301    -1.65662897     1.77147454     0.66903317
O       0.60501999     4.81419802     4.70343302     2.07260174    -1.91478685     0.15983886
O       0.13363498     3.62059899     2.36759400    -1.52222528     2.30015782     1.62083560
O       4.60309900     1.28231200     7.57340499    -1.59806076    -4.52066309    -0.20474988
O       2.82292700     1.84710002     2.57202099     0.04609913    -0.14292382     0.67471531
O       2.29426998     4.09619202     6.80852499     1.78512093    -2.63897252     1.68176743
O       0.17585401     0.98954500     2.23745899    -1.18687102    -3.36011760     4.06750934
O       2.14106100     1.12860098     6.58078002     0.03649451     1.32347919    -0.42640168
O       2.69046599     4.66717798     2.04585402     0.30329978     0.67613790    -0.91906508
