# total energy = -19958.04450257 eV

CRYSTAL
PRIMVEC
        7.60600008     0.00000000     0.00000000
        0.00000000     7.60600008     0.00000000
       -1.89786986    -1.89786986     4.85670466
PRIMCOORD
24 1
Ti      3.83904998     6.54537102     1.28441802    -0.78768500     1.85442196    -3.26475638
Ti      4.01836799     2.92339701     1.18344697    -2.57154892    -1.95267439     0.93365044
Ti     -0.16886200     6.71630400     1.23076098     2.13682792    -1.76993805     2.39256819
Ti     -0.03240099     2.72625600     1.19735799     2.59034394     0.91869998     1.74452140
Ti      5.67800321     2.80525121     3.72446580     0.20532683    -0.28184058     0.06222869
Ti      5.54863921    -0.95401175     3.66926584     2.73566918     0.10303288     0.39378722
Ti      1.90548324     2.90511225     3.57755783    -0.65469027     3.32893500    -2.51261535
Ti      1.90868625    -0.72601679     3.57192379    -1.72223018    -3.05554590     1.40162841
O       3.99214900     4.77636301     0.57581899     0.15176688    -0.19302924     3.38012208
O       4.04796900     0.94025500     0.69555502    -0.84368750     0.87521078    -0.17459520
O      -0.13565200     4.44047299     0.95324900     0.12818908     3.92039616    -1.84012096
O      -0.33610100     0.87945899     0.92507798     1.16796030     0.61957464    -1.64201790
O       5.55364925     4.65514221     4.28374281     0.26165895     0.24077233    -2.25843112
O       5.66708522     0.92713320     3.97527983     0.39445905    -1.90743427     0.56504744
O       2.16259422     4.76492522     3.82598983    -0.85805638     0.07416067     1.67101301
O       1.85960924     1.05231923     3.82733479    -0.00223532    -1.72453029     1.52241117
O       3.76778822     2.78945722     3.19867380     3.32592860    -0.00503834    -0.65812475
O       3.82491624    -0.82539279     3.19082483     0.24814163    -0.34175733     0.28513339
O      -0.02431977     2.86176924     3.17646280    -0.32973176    -0.18787521     1.07090549
O       0.00718321     6.36109023     3.15405379    -0.90299645     0.98349772     1.06721852
O       5.71612101     6.84497001     1.68848998    -2.24428619    -1.57201574     0.85609231
O       5.77669698     2.84320899     1.74596398    -2.22694229     0.04874093    -0.31482913
O       1.96431400     6.56297098     1.74338202     0.33963231     0.41877578    -2.59871597
O       2.01639102     2.86014599     1.67173999    -0.54181468    -0.39453901    -2.08212074
