# total energy = -39482.84316744 eV

CRYSTAL
PRIMVEC
        7.60629642    -0.00000847    -0.00005503
       -0.00000847     7.60629642    -0.00005503
       -3.80314186    -3.80314186     9.70738094
PRIMCOORD
47 1
Ti      1.90147220     4.65115413     6.10744726     0.00006428     0.15144960    -0.02856522
Ti      3.83235346     6.65569496     1.20317935     0.01013915     0.00016327    -0.11062613
Ti      1.90144956     1.05354384     6.10762450     0.00008947    -0.15212375    -0.02929567
Ti      3.79417043     2.85253234     1.21728818     0.04878567     0.00007071     0.02432573
Ti     -1.90169819     4.76407044     6.06055087     0.00024605    -0.04369437    -0.02497545
Ti     -0.02944638     6.65567120     1.20322441    -0.00947529     0.00010079    -0.11048060
Ti     -1.90171945     0.94103337     6.06054171     0.00007225     0.04375839    -0.02503870
Ti      0.00866561     2.85252739     1.21733553    -0.04891808     0.00004345     0.02442369
Ti      3.80716615     0.94454465     8.50175772     0.02951782    -0.01385774     0.01685822
Ti      5.70492954     2.85222010     3.63710882     0.00028205     0.00005965     0.03046861
Ti      3.80715731    -2.84645162     8.50175790     0.02948182     0.01418195     0.01695335
Ti      5.70481247    -0.95095352     3.64349000    -0.00035481    -0.00008896     0.05162803
Ti     -0.00374488     0.94453453     8.50176640    -0.02985360    -0.01380914     0.01703305
Ti      1.90177332     2.85220697     3.66602760     0.00048440    -0.00035301     0.11957460
Ti     -0.00368090    -2.84646431     8.50177714    -0.02949236     0.01408168     0.01666693
Ti      1.90165856    -0.95080635     3.49704533    -0.00031985    -0.00014758     0.01840114
O       1.90162015     2.85234622     5.64592732     0.00003985    -0.00073971     0.17859789
O       3.80167644     4.75539735     0.79063153    -0.00260041    -0.03384370    -0.01676308
O       3.80168510     0.94933241     0.79065897    -0.00249551     0.03392880    -0.01665716
O      -1.90153278     2.85237326     5.66302162    -0.00005914    -0.00000489     0.03953124
O       0.00156725     4.75540053     0.79066306     0.00246903    -0.03383984    -0.01667490
O      -1.90155358    -0.95077830     5.64388247    -0.00010722     0.00022549    -0.08560697
O       0.00157504     0.94933704     0.79069003     0.00239704     0.03388690    -0.01661705
O       3.79135185     2.85236515     8.89969073    -0.03452916    -0.00010696    -0.06903055
O       5.70467433     4.75217268     4.06128599     0.00001903    -0.01692892    -0.00020337
O       3.81128335    -0.95079411     8.92554570     0.05707594     0.00005091     0.03802483
O       5.70467784     0.95253754     4.06131104     0.00000257     0.01694615    -0.00012084
O       0.01171433     2.85236528     8.89970297     0.03467700    -0.00004499    -0.06916939
O       1.90148569     4.86178379     4.13092801    -0.00031599    -0.06268275    -0.05040701
O      -0.00822592    -0.95079013     8.92557070    -0.05704020    -0.00000103     0.03797444
O       1.90149838     0.84299761     4.13089645    -0.00032576     0.06260150    -0.05002572
O       1.90157938     0.91991126     8.08602943    -0.00003291     0.03273658     0.01419687
O       3.78303479     2.85240475     3.24448424     0.03876299     0.00000797     0.02965280
O       1.90157981    -2.82143701     8.08602212     0.00007816    -0.03299344     0.01459487
O       3.81815753    -0.95073240     3.20750942     0.00392608     0.00014707    -0.11681503
O      -1.90157751     0.95977796     8.05333494     0.00006505     0.03826806     0.00412765
O       0.02008734     2.85240407     3.24449310    -0.03889566     0.00001723     0.02962478
O      -1.90156974    -2.86124370     8.05335815     0.00008202    -0.03828477     0.00405720
O      -0.01500216    -0.95072774     3.20756540    -0.00424721     0.00015504    -0.11684974
O       3.78155210     4.83125371     6.46261372     0.01023171     0.09467037     0.06957588
O       5.70469909     6.65544410     1.62624751     0.00002314     0.00000591    -0.11976100
O       3.78157095     0.87339462     6.46261984     0.00983473    -0.09450093     0.06984070
O       5.70471953     2.85231216     1.65166098    -0.00006299     0.00008510     0.05709291
O       0.02155346     4.83125335     6.46264376    -0.01000365     0.09467628     0.06960519
O       1.90156754     6.65545920     1.59349161     0.00001440     0.00013138    -0.04564275
O       0.02154254     0.87339895     6.46265160    -0.00977328    -0.09450865     0.06983247
O       1.90156884     2.85231295     1.64716020     0.00004165     0.00010567     0.05666379
