# total energy = -19519.01198435 eV

CRYSTAL
PRIMVEC
        7.60600008     0.00000000     0.00000000
        0.00000000     7.60600008     0.00000000
       -1.89786986    -1.89786986     4.85670466
PRIMCOORD
23 1
Ti      3.80807199     6.62007698     1.22572898     0.51949519     0.16526492     0.01580381
Ti      3.72381200     2.82129501     1.29601001     1.07858718    -0.05548700     0.67360048
Ti     -0.01076500     6.69025801     1.14604002    -0.31594190    -0.17283656     0.05219521
Ti     -0.00236500     2.89013701     1.18690700    -0.97329660     0.11850656    -0.49219752
Ti      5.65223323     2.87446923     3.61939580    -0.80747479    -0.36103084    -0.34811361
Ti      5.74052624    -0.90778479     3.62819179    -0.19679668     0.17635177    -0.05344940
Ti      1.84951624     2.77740024     3.70592681     1.58309591    -0.24445544     0.28299397
Ti      1.88787223    -1.00623578     3.62470181     0.29769272     0.49367256     0.24419396
O       3.99622599     4.71661800     0.82927198    -1.14195666     0.06471778     0.41457588
O       3.90019101     0.95927199     0.77911603    -0.54708133    -0.70529114    -0.23140400
O      -0.15250301     4.80276203     0.66975901     0.73686507     0.48081601     1.91097622
O      -0.08375003     0.99791097     0.72917302     0.36251180    -1.47048643     0.04605387
O       5.77426023     4.71425120     3.87812580     0.45012705     1.66851416     1.07207663
O       5.76299622     1.00706124     4.14551081     0.50675614    -0.65993841    -1.44937150
O       1.88814121     4.66427121     3.92767182    -0.49943055     1.41160584     0.91482147
O       2.04280220     0.94618120     4.08654083    -1.08275956    -0.54242146     0.10131230
O       3.80576224     2.82317724     3.29009383    -0.59563869     0.06145762    -1.32206225
O       3.84134322    -0.86285478     3.15810781    -0.46178521    -0.36606609     0.12151835
O      -0.00292180    -0.78176276     3.23082883     0.88233968    -0.43739315    -0.38237640
O       5.74421000     6.67399401     1.62709002     0.06819134     0.12109669    -0.33209435
O       5.79587802     2.77965898     1.71066399    -0.02436147     0.10972161    -0.20814965
O       1.91828499     6.60657101     1.61103098    -0.42881080    -0.03372183    -0.17258254
O       1.77668399     2.77714502     1.76312398     0.58967219     0.17740233    -0.85832069
