# total energy = -19915.41529461 eV

CRYSTAL
PRIMVEC
        6.67283897     0.00000000     0.00000000
        0.00002234     3.41944224     0.00000000
        0.00000000     0.00000000    10.08159933
PRIMCOORD
24 1
Ti      2.41859653     2.02635837     3.74020144    -0.77983825     1.41270087    -1.36432683
Ti      4.25426493     1.39308402     6.34139798     0.77983825    -1.41270087     1.36432683
Ti      5.75490179     1.39308524     1.30055799    -0.77667450    -1.41191411     1.36591732
Ti      0.91795972     2.02635731     8.78104159     0.77667450     1.41191411    -1.36591732
Ti      2.41858541     0.31663730     1.30059842    -0.77983825     1.41270087     1.36432683
Ti      4.25427610     3.10280520     8.78100116     0.77983825    -1.41270087    -1.36432683
Ti      0.91794855     0.31663599     6.34135755     0.77667450     1.41191411     1.36591732
Ti      5.75491291     3.10280651     3.74024187    -0.77667450    -1.41191411    -1.36591732
O       2.11200361     1.20404379     5.14456298     5.07268635    -1.71419805     3.47894272
O       4.56085790     2.21539860     4.93703645    -5.07268635     1.71419805    -3.47894272
O       1.22447079     1.20405755     0.10379571    -5.06991984    -1.71603228     3.48019896
O       5.44839076     2.21538484     9.97780342     5.06991984     1.71603228    -3.48019896
O       4.56084673     0.50567748     0.10376301    -5.07268635     1.71419805     3.47894272
O       2.11201473     2.91376491     9.97783616     5.07268635    -1.71419805    -3.47894272
O       5.44837964     0.50566372     5.14459567     5.06991984     1.71603228     3.48019896
O       1.22448176     2.91377872     4.93700375    -5.06991984    -1.71603228    -3.48019896
O       0.24245336     2.07989864     2.72329148     2.12656741    -0.65019032     1.13744026
O       6.43040810     1.33954380     7.35830794    -2.12656741     0.65019032    -1.13744026
O       3.57888119     1.33951188     2.31754027     2.12644837     0.65048240    -1.13712505
O       3.09398027     2.07993056     7.76405901    -2.12644837    -0.65048240     1.13712505
O       0.24244224     0.37017747     2.31750808     2.12656741    -0.65019032    -1.13744026
O       6.43041927     3.04926492     7.76409120    -2.12656741     0.65019032     1.13744026
O       3.09396915     0.37020939     7.35834008    -2.12644837    -0.65048240    -1.13712505
O       3.57889236     3.04923300     2.72325929     2.12644837     0.65048240     1.13712505
