# total energy = -19071.12997453 eV

CRYSTAL
PRIMVEC
        5.17600016     0.00000000     0.00000000
        0.00000000     5.50899976     0.00000000
        0.00000000     0.00000000     9.26300011
PRIMCOORD
22 1
Ti      1.56592301     3.08734602     3.65518501    -1.21541182    -1.22582942    -1.32812414
Ti      4.42065800     3.21635801     5.73894903     0.41749666     0.09618115     2.13688782
Ti      4.15604498     2.22907100     1.40009902     1.32930351    -1.84845571     1.48888063
Ti      1.45512102     3.03253802     8.00201099    -0.54417727    -1.18486094     0.80963066
Ti      1.60224198     0.44082899     1.30917901    -0.60006176     1.06688042     0.46962579
Ti      3.23484100     5.17017302     8.07830702     2.26243381     0.18197941     1.41682569
Ti      1.39502400     0.21063800     5.73113498    -0.60094879     0.88002569     0.66208168
Ti      3.84914901     4.98411499     3.30171001     2.01607884     0.57392520     0.07270157
O       3.24971999     3.36757898     4.46522002    -1.87441563    -1.34907684    -0.62869178
O       0.64286902     1.87831999     0.42599599    -0.06683688     0.33609524    -1.45577278
O       4.93011001     3.71936802     7.67979602    -0.67934356     0.63860878    -0.44017148
O       3.42281900     0.56634999     0.76593300     0.21542459    -0.08018580    -2.82463195
O       2.00912298     4.40414000     9.17835900    -1.52972082    -1.33277733     1.11455744
O       2.67146599     0.19761098     4.69355000     2.46221348     1.53494530    -0.93094692
O       0.22608701     4.51934099     4.86748898     0.16260382     0.82934100     0.09403685
O       4.92260501     3.37281900     2.73470902     0.21734417     0.61703902    -1.20938541
O       0.60262203     2.01798500     5.28280501     0.45486971    -0.93513473     0.15710269
O       2.40402002     1.70553002     2.53334702     0.03048687     2.23978727     0.46469133
O       2.46537399     4.14750602     6.70475699    -0.50015765    -2.34110188    -0.71785150
O       5.05702101     0.77181899     2.53699099    -0.12475897    -0.74591304     0.32831765
O       2.22325699     0.90025698     7.28342300    -0.55500496     3.85257069     1.23877802
O       2.20928300     4.64058402     2.60730600    -1.27741760    -1.80404374    -0.91854134
