# total energy = -19074.75544421 eV

CRYSTAL
PRIMVEC
        5.17600016     0.00000000     0.00000000
        0.00000000     5.50899976     0.00000000
        0.00000000     0.00000000     9.26300011
PRIMCOORD
22 1
Ti      1.82467899     3.39396000     3.29763497     1.05055134     0.82930706    -0.72937004
Ti      3.60719102     2.27474202     5.85175501    -0.63452561    -0.17972943     0.80645123
Ti      4.37539800     2.22401302     1.33312598     0.17513307    -0.05068855    -1.67744052
Ti      0.76996697     3.22062402     8.13977599    -0.13949345     0.68599243     0.96382286
Ti      1.82029603     0.56347402     1.23165402     0.37948108    -0.65344045    -0.86862824
Ti      3.20987802     5.01761402     7.96798198     0.53816423    -0.24181543     0.81212900
Ti      0.58009701     0.20071302     6.00239002     0.96931911     1.80941915    -0.81625485
Ti      4.46040398     4.94821602     3.46957498    -1.10334408     0.32990223    -0.66573239
O       3.33276202     3.66421500     4.48016901     0.72364214    -1.62942001     1.48485196
O       0.94240399     1.93395197     0.31435298    -0.69198953     1.13314549    -1.77801440
O       4.30353801     3.71174702     9.07353999     0.75910872    -0.66573522    -0.03635387
O       3.41464400     0.91123899     0.23398302     0.23341717    -0.23806110    -1.69617487
O       1.66588703     4.68462199     9.01556900    -0.59889011     0.76517421     0.80371532
O       4.34841499     0.85476398     4.64676698    -0.24581684     0.98986634     1.14551379
O       0.97625201     4.77893598     4.32791599    -0.20302852    -0.29978354     2.23429076
O       0.14274699     3.56844598     2.42343802    -0.24128321    -1.69568919    -0.46685157
O       0.16291097     2.33662898     6.54493397    -0.20273285    -1.17034011    -0.12699557
O       2.71466897     1.98084200     2.27453903    -0.33722370     0.46761442     1.24123111
O       2.63411100     3.34864602     7.21827398    -0.56125557    -0.58903018    -1.26148447
O       0.00364000     0.63937402     2.03333199     0.39246722    -0.19033344     1.29452727
O       2.42173698     0.64076300     6.53124299    -0.32369481     0.16914446     0.11525257
O       2.70556400     4.73388199     2.41029701     0.06199395     0.42450060    -0.77848507
