# total energy = -4980.35645511 eV

CRYSTAL
PRIMVEC
        4.49532139     0.00000000     0.00000000
       -0.00000730     2.99688058     0.00000000
       -2.24768719    -1.49848602     4.98006066
PRIMCOORD
6 1
Ti     -0.00019320     2.24776931     1.24501490    -0.00676175    -0.01034278    14.35993478
Ti      2.24782016    -0.74937506     3.73504508     0.00676175     0.01034278   -14.35993478
O       0.00004731     0.74921201     0.81121107     0.00547002     0.01054024    -6.81674649
O       2.24757955     0.74918219     4.16884897    -0.00547002    -0.01054024     6.81674649
O      -0.00001926    -0.74921477     3.30124129    -0.00200983    -0.00009873    -1.01261007
O       2.24764607     2.24760891     1.67881880     0.00200983     0.00009873     1.01261007
