# total energy = -19519.93174124 eV

CRYSTAL
PRIMVEC
        5.17575250     0.00001323     0.00000000
        0.00001429     5.50856584     0.00000000
        0.00000000     0.00000000     9.26345890
PRIMCOORD
23 1
Ti      1.83566894     3.35921243     3.40677957     0.04638966     0.02483892     0.00338460
Ti      3.33717748     2.18062197     5.77169737     0.01424675     0.01996282    -0.00278013
Ti      4.53893008     1.97347206     1.40233969    -0.01992657    -0.14905770     0.02785843
Ti      0.87817036     3.29786435     7.94638297     0.02023536    -0.00572328    -0.08802921
Ti      1.91305633     0.60671925     1.15288655     0.06813683    -0.07961090     0.08036063
Ti      3.20471567     5.14135531     7.95578816     0.01668132     0.01343505    -0.07348807
Ti      0.68307648     0.63906732     5.69936205    -0.00701629     0.03514905    -0.02310317
Ti      4.40799586     4.86536021     3.47136602     0.06965352    -0.03213392     0.08080132
O       1.60031752     1.91497963     4.68035661    -0.06403103    -0.09415486     0.04216919
O       3.51034550     3.56742103     4.53063971     0.08547507     0.03218714    -0.02173509
O       0.81881487     2.04768817     0.10893719     0.02617435     0.01828698    -0.05677152
O       3.57761669     0.86916380     0.09614097    -0.13963641    -0.01345947    -0.10376025
O       1.73580681     4.66260027     9.17000257    -0.01229888     0.06230454     0.03707018
O       4.15986718     0.77722169     4.74256258    -0.00635448     0.03006778    -0.00658485
O       0.93115477     4.63620468     4.56872129    -0.00644267     0.06317126     0.00433797
O       0.15535386     3.38108018     2.44397749     0.00426212     0.03004258    -0.01956739
O       4.98759470     2.12657888     6.77803086    -0.07356777    -0.00066823     0.04145545
O       2.77069217     2.15081035     2.11922952    -0.02342122     0.10841626     0.03854059
O       2.53918685     3.38638823     7.15948358     0.01643141    -0.02891798    -0.00862451
O       0.23079262     0.57104832     2.20170205    -0.00799073    -0.02517445     0.03841615
O       4.95574202     4.77728329     7.33939499    -0.04134824    -0.01053150     0.04873682
O       2.33047397     0.70692469     6.79292759     0.00095542    -0.01675383    -0.03228355
O       2.78063719     4.89498906     2.45471360     0.03339247     0.01832374    -0.00640333
