# total energy = -19073.91744641 eV

CRYSTAL
PRIMVEC
        5.93400000     0.00000000     0.00000000
        0.00000000     9.29699974     0.00000000
        0.00000000     0.00000000     4.64899994
PRIMCOORD
22 1
Ti      4.42227199     7.02614998     2.26388399    -1.36504057    -1.18559833     0.20503501
Ti      4.39580599     2.31453498     2.32993801     1.07448884    -0.85812245    -0.62555863
Ti      1.49935098     7.11140197     2.56546898     1.20108023    -1.07349793     0.17071309
Ti      1.57454098     2.45977599     2.02906201    -0.58078877     0.91959292     0.03718305
Ti      3.03689299     4.61851701     4.57035600    -1.75436512     1.28838799     0.63340461
Ti      2.95967301     9.28572700     4.58383298     0.96968729     0.94183555     0.57381902
Ti      5.80141501     4.55385901     4.39359202     2.09033284     0.10433001     1.21881725
Ti      5.89655098     9.06418297     0.27152201    -0.49474317     1.70694779    -0.64902895
O       4.49873599     5.59473500     0.77831501     0.20542942     0.74099889     1.52009049
O       4.42196100     0.79161398     1.02603802     0.52408461     0.62764791    -0.67159425
O       1.38902302     0.92495299     0.87570098     0.39943337     0.76990042    -0.40176998
O       4.51001599     8.24408799     3.89096999    -0.26314891     0.97154285    -0.30101330
O       4.33245400     3.83543501     3.66828702     0.71010193    -2.44864037    -1.77833450
O       1.54033898     8.15768700     4.00977600    -0.70606761     1.05475253     0.53284204
O       1.57147598     3.65343100     3.66319797    -0.51079354     1.05056291     0.30907680
O       3.13900700     6.15784198     3.35291902    -1.52356508    -0.73013546    -0.75444962
O       2.96186502     1.46186898     3.10874299    -0.91323947    -1.62727673     1.81180668
O       0.04349202     6.12209399     3.31596298    -0.08408719    -1.06196293    -0.71494744
O       2.86335000     8.08192400     1.61596201     0.52775923    -0.82850256    -0.50703639
O       3.21515698     3.20205900     1.35212000    -1.88078503     1.35450418    -1.19160366
O       0.01295003     8.04262201     1.68844098     0.79783649    -1.15388813     0.72979685
O       5.79224300     3.28706498     1.39408302     1.57639047    -0.56337905    -0.14724739
