# total energy = -4984.70546615 eV

CRYSTAL
PRIMVEC
        3.41183457     0.00000000     0.00000000
        0.00000000     5.34583327     0.00000000
        0.00000000    -0.00006938     5.34583327
PRIMCOORD
6 1
Ti      1.70591723     2.67288189     2.67291658     0.00000000     0.00000000     0.00000000
Ti      0.00000000     0.00000000     0.00000000     0.00000000     0.00000000     0.00000000
O       1.70591723     1.04181063     1.04182415    -0.00000000    -0.86948905    -0.86948905
O       1.70591723     4.30395314     4.30400900     0.00000000     0.86948905     0.86948905
O       0.00000000     1.63104313     3.71474181    -0.00000000     0.87186758    -0.87186758
O       0.00000000     3.71472065     1.63109134    -0.00000000    -0.87186758     0.87186758
