# total energy = -19930.16697231 eV

CRYSTAL
PRIMVEC
        6.06999649     0.00000000     0.00000000
        2.48476377     5.96335275     0.00000000
        0.00000000     0.00000000    11.09685204
PRIMCOORD
24 1
Ti      3.67255054     3.53387743     4.11685296     0.29986582    -2.62975357     0.74925162
Ti      4.88220982     2.42947549     6.97999920    -0.29986582     2.62975357    -0.74925162
Ti      6.24727585     2.42947752     1.43152876    -1.14958436    -1.00472604     0.40915805
Ti      2.30748455     3.53387564     9.66532346     1.14958436     1.00472604    -0.40915805
Ti      2.43016877     0.55220103     1.43157324     0.29986582    -2.62975357    -0.74925162
Ti      6.12459162     5.41115207     9.66527898    -0.29986582     2.62975357     0.74925162
Ti      1.06510264     0.55219884     6.97995466     1.14958436     1.00472604     0.40915805
Ti      7.48965775     5.41115426     4.11689744    -1.14958436    -1.00472604    -0.40915805
O       2.79611976     2.09979794     5.66263867     1.76152334     2.13543309    -0.91316182
O       5.75864053     3.86355499     5.43421349    -1.76152334    -2.13543309     0.91316182
O       1.98877915     2.09982204     0.11424832    -0.04580756    -0.81319987     1.47702835
O       6.56598129     3.86353099    10.98260348     0.04580756     0.81319987    -1.47702835
O       4.51625874     0.88187847     0.11421229    -1.76152334    -2.13543309    -0.91316182
O       4.03850161     5.08147445    10.98263951     1.76152334     2.13543309     0.91316182
O       5.32359943     0.88185442     5.66267464     0.04580756     0.81319987     1.47702835
O       3.23116082     5.08149858     5.43417746    -0.04580756    -0.81319987    -1.47702835
O       1.73191122     3.62724936     2.99753660     0.60820265     2.45949531     2.32491421
O       6.82284908     2.33610357     8.09931556    -0.60820265    -2.45949531    -2.32491421
O       4.22891376     2.33604807     2.55092478     0.93075075     1.80917901     1.14086317
O       4.32584653     3.62730486     8.54592720    -0.93075075    -1.80917901    -1.14086317
O       0.48952942     0.64557278     2.55088930     0.60820265     2.45949531    -2.32491421
O       8.06523094     5.31778014     8.54596262    -0.60820265    -2.45949531     2.32491421
O       3.08346474     0.64562834     8.09935092    -0.93075075    -1.80917901     1.14086317
O       5.47129555     5.31772459     2.99750118     0.93075075     1.80917901    -1.14086317
