# total energy = -19075.13713411 eV

CRYSTAL
PRIMVEC
        7.60600008     0.00000000     0.00000000
        0.00000000     7.60600008     0.00000000
       -1.89786986    -1.89786986     4.85670466
PRIMCOORD
22 1
Ti      3.88023801     6.55960102     1.28542700     0.28349740     1.29431052    -0.31735421
Ti      3.68098600     2.80989601     1.14667498    -0.02331426    -0.53104767     0.82441862
Ti     -0.01403399     6.71315402     0.99296899    -0.29497043    -0.58906026     0.86938852
Ti     -0.13408097     2.85208599     1.03475198    -0.39430967     0.95444784     1.40499656
Ti      5.62269524     2.96541220     3.54049881    -0.55619795    -0.12300059    -0.35555233
Ti     -1.24350076    -0.77962277     3.84865581    -1.24191399    -1.19520757    -1.40820812
Ti      1.80335024     2.76199324     3.67782279     0.48619065     0.04089804    -0.55069579
Ti      1.72674024    -1.07759978     3.78673382     0.43579238     0.62203776    -0.02497005
O       3.73893700     4.76420099     0.87423902    -0.30414285    -0.93025349    -0.57082908
O       4.00299602     0.87000000     0.88639798    -0.65707317    -0.09823238     0.09248236
O      -0.03802599     4.80104702     0.64809301    -0.04887540     0.58338944     0.32787105
O       7.27771900     1.06281599     0.62569701     0.46510734    -1.60058713     1.68933753
O       5.35526525     4.92469521     3.97748481     1.46491022    -0.77825110     0.20289277
O       5.63519721     0.91394123     3.95762283     0.25761563     1.47312259    -0.26751696
O       2.16796823     4.68198520     4.21099179    -1.01602810     0.37533235    -0.61881745
O       2.14945121     0.90067624     4.08097383    -1.11161866    -0.39928527    -0.24979074
O       3.65222321     2.87574725     3.12979281     0.07633017    -0.29012236     0.20569450
O      -0.10984677     2.70324520     3.19877382     0.93451767     0.86275301    -0.02023896
O       5.84986902     6.59557602     2.09493500     0.02138644     0.20415749    -1.61173827
O       5.55547502     2.93643298     1.60112002     1.26998814     0.27425428     0.02584242
O       1.98136202     6.70135300     1.87850103    -0.08997939    -0.27124608    -0.17074780
O       1.75937301     2.71399602     1.41428198     0.04308759     0.12159060     0.52353490
