# total energy = -19073.05317927 eV

CRYSTAL
PRIMVEC
        7.60600008     0.00000000     0.00000000
        0.00000000     7.60600008     0.00000000
       -1.89786986    -1.89786986     4.85670466
PRIMCOORD
22 1
Ti      3.71191303     7.13521998     0.97047398     0.01236264    -1.79017778     3.02335876
Ti      3.91491500     2.80871599     1.37788501     0.30984401     1.24059759    -1.35033771
Ti     -0.12054398     6.73265902     1.21530800     0.48309812    -1.62293748     3.47810146
Ti      0.03501301     2.73562900     1.40217498    -1.01263373     0.30272514    -1.70167009
Ti      5.85145423     2.85052221     3.80470182    -0.36847496    -1.02040797    -0.80529398
Ti      5.62774523    -0.99838575     3.81833380     1.88710017     2.22379911    -2.17126143
Ti      2.02867222     2.76565123     3.85932784    -1.51878745    -0.85879248     0.19507250
Ti      1.86888423    -0.80734880     3.63641182    -0.96509118     1.49810961    -1.70967908
O       3.54157600     4.52942002     0.80784601    -0.32765842     0.65289461     1.37344114
O       3.12702601     1.24794199     0.57662201     0.66975514    -0.42016932     2.79574174
O       0.04253802     4.93095500     0.81499800    -0.07960498    -2.17738631     1.13571917
O      -0.18195199     0.83329801     0.85328699     0.19117085     3.42262217     0.37777953
O      -1.53841177     4.82056424     4.11817182    -0.95632423    -0.99386595    -0.72312278
O       5.41238120     0.91756123     4.38123779     0.95157823     0.56178239    -1.32813340
O       2.00680222     4.74381321     4.10402480    -0.02669963     0.96607694    -0.96180634
O       2.54238823     0.90812420     4.22510780    -0.48818197    -1.32203782    -1.35089435
O       3.72023222     2.85003923     3.27680381     2.38520917     0.73654060    -0.48733042
O       0.08085024     2.47995823     3.27213583     0.69441665     0.28762376     1.34258326
O       5.52157598    -0.60027698     1.79462400    -1.05235729    -0.74286680    -0.42092548
O       5.78679199     2.73561799     1.73447898    -0.62904916     0.58657555     1.22938757
O       1.90665902     6.93874599     1.70061201    -0.05217722    -0.76905812     0.37638445
O      -0.06942276    -0.64375180     3.46867681    -0.10749426    -0.76164717    -2.31711477
