# total energy = -4985.76917636 eV

CRYSTAL
PRIMVEC
        3.70458276     0.00000000     0.00000000
        1.74332664     3.26875292     0.00000000
       -2.72398951    -1.63439734     4.89249232
PRIMCOORD
6 1
Ti      1.30740757     2.45169057     1.22312276     0.00077699    -0.00077699     0.00000000
Ti      1.41651218    -0.81733512     3.66936897    -0.00077699     0.00077699     0.00000000
O       0.43587005     0.81718407     0.79694692     0.00030030     0.00027614    -3.00514634
O       2.28804955     0.81717137     4.09554485    -0.00030030    -0.00027614     3.00514634
O      -0.43583484    -0.81716290     3.24319308     0.00027614     0.00030030    -3.00514634
O       3.15975437     2.45151826     1.64929864    -0.00027614    -0.00030030     3.00514634
