# total energy = -4886.94894458 eV

CRYSTAL
PRIMVEC
        5.79029315     0.00000000     0.00000000
       -0.00000716     1.93009772     0.00000000
       -2.89518343    -0.96517445     6.56862422
PRIMCOORD
6 1
Ti     -0.00024781     1.44761932     1.64215565    -0.05909529    -0.03765562   109.30637819
Ti      2.89535021    -0.48269610     4.92646760     0.05909529     0.03765562  -109.30637819
O       0.00006113     0.48250351     1.06997504     0.05692579     0.03761834  -105.58703235
O       2.89504111     0.48241965     5.49864827    -0.05692579    -0.03761834   105.58703235
O      -0.00002656    -0.48258457     4.35428698    -0.00100530     0.00017149    -0.51479084
O       2.89512870     1.44750767     2.21433632     0.00100530    -0.00017149     0.51479084
