# total energy = -4985.73922981 eV

CRYSTAL
PRIMVEC
        3.12182842     0.00000000     0.00000000
        0.00000000     3.61541031     0.00000000
        0.00000000    -0.00005704     4.35132854
PRIMCOORD
6 1
Ti      1.56091426     1.80767649     2.17566427     0.00000000     0.00000000     0.00000000
Ti      0.00000000     0.00000000     0.00000000     0.00000000     0.00000000     0.00000000
O       1.56091426     0.70457905     0.84800983     0.00000000    -1.07532470    -1.35228995
O       1.56091426     2.91077388     3.50331866     0.00000000     1.07532470     1.35228995
O       0.00000000     1.10307439     3.02367506    -0.00000000     1.07547357    -1.35268204
O       0.00000000     2.51227859     1.32765348    -0.00000000    -1.07547357     1.35268204
