# total energy = -4983.74592144 eV

CRYSTAL
PRIMVEC
        4.83760475     0.00000000     0.00000000
       -0.00000785     3.22506946     0.00000000
       -2.41883088    -1.61258394     5.35925310
PRIMCOORD
6 1
Ti     -0.00020791     2.41891925     1.33981299    -0.00459868    -0.00874818     8.82527682
Ti      2.41897398    -0.80643407     4.01943937     0.00459868     0.00874818    -8.82527682
O       0.00005091     0.80625860     0.87297841     0.00248574     0.00235590    -3.48997225
O       2.41871505     0.80622652     4.48627402    -0.00248574    -0.00235590     3.48997225
O      -0.00002073    -0.80626158     3.55260484    -0.00242558    -0.00011879    -2.10256256
O       2.41878663     2.41874665     1.80664764     0.00242558     0.00011879     2.10256256
