# total energy = -19926.38631903 eV

CRYSTAL
PRIMVEC
        4.82960590     0.00000000     0.00000000
        1.97700770     4.74475458     0.00000000
        0.00000000     0.00000000     8.82923445
PRIMCOORD
24 1
Ti      2.92207282     2.81173726     3.27558301     4.84178500    -3.83320847     1.26164413
Ti      3.88454085     1.93301745     5.55365154    -4.84178500     3.83320847    -1.26164413
Ti      4.97065861     1.93301907     1.13899897    -9.84505848     2.37889608     2.78573629
Ti      1.83595510     2.81173584     7.69023562     9.84505848    -2.37889608    -2.78573629
Ti      1.93356906     0.43935995     1.13903436     4.84172329    -3.83346070    -1.26115022
Ti      4.87304464     4.30539491     7.69020023    -4.84172329     3.83346070     1.26115022
Ti      0.84745123     0.43935820     5.55361610     9.84536984    -2.37898659     2.78287233
Ti      5.95916247     4.30539665     3.27561840    -9.84536984     2.37898659    -2.78287233
O       2.22473877     1.67070880     4.50549077    -2.04647315    -0.46303760    -1.28281075
O       4.58187486     3.07404593     4.32374377     2.04647315     0.46303760     1.28281075
O       1.58237645     1.67072797     0.09090192     2.20110269    -0.29072888    -2.05428751
O       5.22423729     3.07402683     8.73833233    -2.20110269     0.29072888     2.05428751
O       3.59337108     0.70166852     0.09087326     2.04632480     0.46285968    -1.28282952
O       3.21324259     4.04308619     8.73836100    -2.04632480    -0.46285968     1.28282952
O       4.23573346     0.70164939     4.50551939    -2.20127573     0.29094228    -2.05396560
O       2.57088013     4.04310539     4.32371511     2.20127573    -0.29094228     2.05396560
O       1.37799893     2.88602884     2.38499651    -0.18476211    -3.98918785    -3.75411411
O       5.42861470     1.85872588     6.44423803     0.18476211     3.98918785     3.75411411
O       3.36474443     1.85868173     2.02964885     2.51337409    -3.66408870    -4.61756184
O       3.44186920     2.88607300     6.79958555    -2.51337409     3.66408870     4.61756184
O       0.38949514     0.51365139     2.02962062    -0.18486316    -3.98964319     3.75471755
O       6.41711853     4.23110333     6.79961373     0.18486316     3.98964319    -3.75471755
O       2.45336543     0.51369559     6.44426617    -2.51352090     3.66429465    -4.61768448
O       4.35324820     4.23105913     2.38496833     2.51352090    -3.66429465     4.61768448
