# total energy = -19961.05909191 eV

CRYSTAL
PRIMVEC
        5.93400000     0.00000000     0.00000000
        0.00000000     9.29699974     0.00000000
        0.00000000     0.00000000     4.64899994
PRIMCOORD
24 1
Ti      4.43799401     6.96415100     2.38950098     1.00381972    -0.13806238    -0.24126907
Ti      4.48277399     2.33997899     2.37549800     0.07257790    -0.25056284    -0.86961940
Ti      1.47261303     6.96593797     2.27422300    -0.99004195    -0.32690920    -0.14635316
Ti      1.54805201     2.30083501     2.31983501    -0.24407748     0.49328715     0.02322298
Ti      2.98522899     4.61994600     4.58555202    -1.88309131     0.35139768     0.27961580
Ti      2.96549100     9.26908400     0.01215203     0.04929912    -0.06379629     0.35305039
Ti      5.84875399     4.65626899     0.06945499     1.87404616     0.53013827    -0.11433777
Ti      0.00207803     0.02025802     4.59050300    -0.03500121    -0.11463473     0.56168340
O       4.51812298     5.60389701     0.91315699    -1.04366335    -0.25085851    -0.13775359
O       4.48290602     1.00471101     0.86489100    -0.22070641    -0.97562268    -0.32180993
O       1.45598601     5.55808402     0.91081401     0.58788476     0.01728913    -0.04872114
O       1.52082398     0.96351101     0.79739598    -0.45699164    -0.55647383     0.32009398
O       4.45475797     8.38341602     3.75837500     0.04135750     0.46177647     0.31857446
O       4.45583898     3.80589798     3.71952201    -0.38617341    -0.76891311    -0.13862725
O       1.44569600     8.28652102     3.70007602     0.31877269     1.26507887     1.24594857
O       1.49991503     3.74377399     3.77121602     0.38505807    -0.09828200    -0.30628149
O       3.03202102     6.08961002     3.32131200    -0.69138507    -0.17278025    -0.43912890
O       2.91933902     1.43598401     3.22711703     0.47543957    -0.57919725     0.18683057
O       5.92596498     5.99730098     3.13747699     0.09072064     0.21227910     0.59519440
O       0.04191301     1.42038101     3.20108002    -0.64024375    -0.32222388     0.14925311
O       2.98077401     7.90664198     1.41617601    -0.19857331     0.00956168    -0.09683652
O       2.93142500     3.11526700     1.41531001     0.69609070     1.42859749    -0.53174161
O       5.88363799     7.92447599     1.53619701     0.72459448     0.45715002    -1.08284107
O       5.82289098     3.29284798     1.41344799     0.47028760    -0.60823942     0.44185376
