# total energy = -19961.32620075 eV

CRYSTAL
PRIMVEC
        7.60600008     0.00000000     0.00000000
        0.00000000     7.60600008     0.00000000
       -1.89786986    -1.89786986     4.85670466
PRIMCOORD
24 1
Ti      3.89923701     6.59066103     1.21120698    -1.53100560     0.28461171    -0.09859310
Ti      3.81022098     2.76526901     1.21399199    -0.00504913    -0.00938402    -0.87542701
Ti     -0.02462098     6.66088698     1.14940098     1.52226153     1.36946287     1.02897721
Ti     -0.03544800     2.94644199     1.24491298    -0.14537563    -1.03509772     0.16811576
Ti      5.64629321     2.84912625     3.65638381     1.68575495     0.17591392    -0.06843328
Ti      5.70026321    -0.90981979     3.63685982     0.58157475    -0.32897689     0.61258484
Ti      1.95394022     2.80742824     3.64292080    -1.42515710    -0.01965249     0.10805939
Ti      1.94517524    -0.98051676     3.66022479    -0.67769394     0.30472289    -1.47498175
O       3.84070397     4.62957501     0.76620198     0.16028417     1.22616367     0.29721038
O       3.82724202     0.90082002     0.75173301     0.07850172     0.42373981     0.35043532
O      -0.14382699     4.81792698     0.83217901     0.39308428    -1.87452953    -0.67557278
O      -0.07525001     0.91390901     0.84634001     0.37003716     1.50174592    -0.98327660
O       5.51167925     4.80516523     4.04558881     0.32230436    -0.37564371    -0.39080140
O       5.60513423     0.96851020     4.00335380     0.72833749     0.47645747     1.30186134
O       1.94744425     4.74011421     4.08752881     0.50828029    -0.72351127    -0.38775927
O       1.83767823     0.90909625     4.07887681     0.16022144     0.50502784    -0.40575340
O       3.87964523     2.83472522     3.11076883    -2.37766067    -0.01355049     1.05198833
O       3.85137325    -0.64676477     3.16096082    -0.35111461    -1.26369227    -0.02090925
O      -0.02146179     2.93755123     3.34985381     0.01046002    -0.04404327    -0.76649499
O       0.03007722    -1.00491077     3.22627082    -0.66262675     0.13118390    -0.02926431
O       5.73055199     6.62487800     1.53309301    -0.63784157    -0.06706648     1.09096138
O       5.71553198     2.72934899     1.64436999     0.08333360     0.38102272    -0.06300593
O       1.92781003     6.73334102     1.60316698     0.10679724    -0.82194162     0.20634962
O       1.80338802     2.86983401     1.66104601     1.10229147    -0.20296270     0.02372923
