# total energy = -19515.64658895 eV

CRYSTAL
PRIMVEC
        5.17600016     0.00000000     0.00000000
        0.00000000     5.50899976     0.00000000
        0.00000000     0.00000000     9.26300011
PRIMCOORD
23 1
Ti      1.85713200     3.22556701     3.41031999    -1.02122918    -1.27441481     2.34047942
Ti      3.42718000     2.32970200     5.90802899     0.74400863    -0.44908061    -3.25581768
Ti      4.28401899     2.06974600     1.45374198     0.68142718     0.55100021    -1.01985364
Ti      0.83942498     3.47314598     7.80149398    -0.39670414     0.86101186     1.36998300
Ti      2.10359800     0.06577599     1.50555801    -3.09192805     0.18936387    -1.64069610
Ti      3.21439402     5.22883401     7.97584497    -0.48232576     0.42111472    -0.28907052
Ti      0.80003800     0.60422898     6.01501900    -0.27750415     0.77163514    -2.84813184
Ti      4.41768202     4.95416302     3.17690800     2.25476961    -0.99077163     3.16813712
O       1.77618598     1.82603802     4.73247803     0.40602259     0.50101820     0.29051625
O       3.53359098     3.58963498     4.38511603    -0.02622629    -0.19679359     1.28659078
O       4.96661001     2.77680502     9.17022099    -0.28925436     0.31636716     0.69970233
O       3.42032498     0.53663098     0.32648300     2.30446931     0.44249165    -0.76548326
O       1.52739001     4.81561003     9.05962798     0.40896933    -0.79836125    -0.22968342
O       4.43649400     0.82261598     5.03628699    -1.53434778     0.30929200    -1.76956009
O       0.93088798     4.70350002     4.24674797     1.05439309    -0.26156536     0.27728895
O       0.18803001     3.34318200     2.39813202     0.24172647     0.12206934     0.21407013
O       5.06763699     2.10630702     6.91792001     0.55186050     0.06594779    -1.02403889
O       2.46542501     1.80007002     1.97632600    -0.01105883     1.44381611     1.62513243
O       2.70643101     3.60593697     7.07492801    -1.22568364     0.51582442     0.75337876
O       0.16580600     0.60927198     1.99858198     0.56420823    -0.08986369     0.10911483
O       4.98009297     4.92903398     7.05822802    -0.26252824    -1.49605426     1.24248349
O       2.46373201     1.14949999     7.07131801    -0.62886507    -1.46438829     0.43563323
O       3.00823699     4.13438698     2.17251900     0.03580083     0.51034128    -0.97017554
