# total energy = -39035.25920609 eV

CRYSTAL
PRIMVEC
        5.93200024     0.00000000     0.00000000
        0.00000000     9.29399984     0.00000000
        0.00000000     0.00000000     9.29399984
PRIMCOORD
46 1
Ti      4.43654798     6.90312400     6.94834003     1.84866757     1.06254863    -1.17523395
Ti      4.46077398     6.95860898     2.26523900    -0.26741874    -0.69433181     0.82534036
Ti      4.50510898     2.38016201     7.05188901    -0.06892770    -0.39811953    -2.35533963
Ti      4.38035200     2.51265900     2.19688200    -0.03474462    -0.79754595     1.24888991
Ti      1.48341898     7.02967801     7.07316299    -1.02127701    -0.23583504    -1.22360182
Ti      1.51294998     7.02297497     2.21882698     0.20798021    -1.01512178     0.61957696
Ti      1.50151499     2.24103999     7.00513699    -0.21244056     1.16222056    -0.42861925
Ti      1.38646699     2.17866999     2.57042700     0.93314650    -0.03514339    -0.50258838
Ti      2.98097398     4.78671398     4.67506902    -0.46864646    -0.49750839     1.37028614
Ti      3.00032499     4.78963002     9.03947601    -1.18911277     0.36228657     0.74030701
Ti      2.92196098     9.26332597     4.74673401     0.76482043     0.88076334    -0.82922530
Ti      2.94752601     9.28060398     0.03629399    -0.64806633     0.87501486    -0.20971468
Ti      0.03156399     4.62396298     4.48352802     0.43870852     0.22287925     1.42931997
Ti      0.01193099     4.62042199     9.15169302     0.98793107     0.22987779     1.30906198
Ti      5.88244401     9.10728102     4.74252202    -0.68556974    -0.38505755     0.69732072
Ti      5.82399199     9.25837801     0.07854800     0.35889837     0.53361723    -0.84745546
O       4.58176602     5.63685502     5.42541701    -0.87285205     0.31649469     0.55580406
O       4.47917098     5.50941898     0.82920101    -1.07458577    -0.27865189     0.36738301
O       4.46763000     0.73650498     5.82071802    -0.09271479     0.06998803    -1.73068603
O       4.41258398     0.97546502     0.95492501     0.46517058    -0.19602201     0.17711359
O       1.38400399     5.69143298     5.53783500     0.87068487    -0.99423362    -0.50458175
O       1.56213098     5.70249602     0.70877800     0.62099055    -1.18068598     0.13445126
O       1.38277598     0.95442001     5.51266701     0.25834660    -0.16666797    -0.17759182
O       1.65775098     1.02407001     0.99905299    -1.12326037    -0.61964612     0.59772900
O       4.42069002     8.27429697     8.37919001     0.45505535     1.03601920     0.68454259
O       4.41948498     8.37918102     3.65427800     0.61023742     0.29827636     0.78187765
O       4.48149698     3.61595700     8.44306499    -0.65513893     0.81184464     1.20784429
O       4.42905398     3.64730302     3.88873602     0.17068737     0.09411809    -1.82790642
O       1.39268498     8.39188497     8.47729699     0.59821134    -0.22508191    -0.39920917
O       1.46779301     8.40714698     3.65243001    -0.40878730     0.74952184     0.36714724
O       1.43965798     3.87558199     8.18881400     1.10998267    -0.81600340     1.19065235
O       1.56888100     3.56905602     3.96727598    -0.37751007     0.26305969    -1.42461408
O       3.02299500     6.04652198     7.65356899    -0.75993507    -1.75622609     1.82030957
O       2.92049098     6.06564501     3.20217801     0.42732805    -0.01132289    -0.50758712
O       2.98617601     1.37750098     8.00423200    -0.54914156     0.94057571    -1.39486306
O       3.10181902     1.46789599     3.33239800    -0.15573615     0.22361201    -0.75299026
O       5.92661502     6.05686898     7.93427302    -0.57810788     0.25437219    -0.69052580
O       0.11352598     5.98752300     3.14744500    -0.59089320     0.13921912    -0.56140213
O       5.88765799     1.39289099     7.99716002     1.04261023     0.33698562    -0.35752205
O       2.89007001     7.82137702     6.02645298     0.38433661     0.71843437    -0.04648248
O       3.02536698     7.86889000     1.35959601     0.06849936    -0.30043686     0.39255386
O       3.02213800     3.50710402     6.15296498     0.17701332    -2.12725801     0.98847075
O       0.03369901     7.79003502     6.09335501    -0.02555729     1.20961604    -0.71431392
O       5.90634202     7.74691702     1.35861301    -0.05281434     1.39281801    -0.31573956
O       0.06337501     3.31867998     6.11606799    -0.75507003    -1.52899011     0.73829512
O       0.12143300     3.18490202     1.46154698    -0.13099853     0.07572699     0.73351646
