# total energy = -19075.02919875 eV

CRYSTAL
PRIMVEC
        5.17600016     0.00000000     0.00000000
        0.00000000     5.50899976     0.00000000
        0.00000000     0.00000000     9.26300011
PRIMCOORD
22 1
Ti      1.84279802     3.35631602     3.28613299     0.41515130     1.50006904     0.22191457
Ti      3.46383902     2.24685798     5.93813002     1.10285248     0.37409231    -0.06165251
Ti      4.41526003     2.23446999     1.29880597     0.26461444    -0.01012449    -2.79297446
Ti      0.75010399     3.23846603     8.14607801    -0.86542439     0.14465032     0.88095540
Ti      1.87989498     0.62928002     1.21527201     0.41682226    -1.17115387    -1.63973939
Ti      3.22672099     5.02614600     7.91568800     0.33526195    -0.47022178     2.26960025
Ti      0.65273199     0.17254099     5.99168900    -0.10099863     1.48864280    -0.22089332
Ti      4.43485302     4.97880400     3.34135697    -0.59760122     0.57727484     1.01284147
O       3.36399401     3.48646500     4.48671102     0.36509370    -0.46234237     0.47618597
O       0.96895403     2.01157201     0.26925300    -0.55832246    -0.01614910    -1.12694887
O       4.16906301     3.60723298     9.01809799     1.52562196    -0.02461832     0.08520922
O       3.62477097     0.85301103     0.19498298    -0.77335778    -0.47614431    -1.03267523
O       1.78330902     4.62475098     9.12438001    -1.10219865     1.29911052     0.13478602
O       4.49859401     0.83296299     4.83334000    -1.62425903     0.19441815    -0.48643439
O       0.96625602     4.76931199     4.42893698     0.43061340    -1.66730728     0.27644203
O       0.11067599     3.60669899     2.38963402     0.15982009    -0.97264946     0.17858606
O       5.09906398     1.95419099     6.86800002     0.05736056    -0.01451877     0.09641280
O       2.65861799     2.19340599     2.01061399     0.44750736     0.20819027     1.81812439
O       2.41617803     3.36868797     7.17440698    -0.07478519     0.18172924    -1.64758254
O       0.17443799     0.75649698     2.18974001    -0.21615709    -0.16939925     0.95039450
O       2.38584098     0.79426499     6.61869499    -0.16590461    -1.08372321     0.17929877
O       2.67079801     4.81075001     2.40248398     0.55828980     0.57017473     0.42814900
