# total energy = -19882.40612036 eV

CRYSTAL
PRIMVEC
        9.34352701     0.00000000     0.00000000
        0.00002942     3.77199046     0.00000000
        0.00000000     0.00000000    14.46145023
PRIMCOORD
24 1
Ti      3.38659671     2.23527800     5.36509491     0.25223843    -0.16622882     2.42002784
Ti      5.95695999     1.53671232     9.09635545    -0.25223843     0.16622882    -2.42002784
Ti      8.05820074     1.53671361     1.86557249     0.25248397     0.16582465    -2.41917783
Ti      1.28535595     2.23527691    12.59587800    -0.25248397    -0.16582465     2.41917783
Ti      3.38658213     0.34928284     1.86563047     0.25215898    -0.16591618    -2.41861476
Ti      5.95697456     3.42270762    12.59582003    -0.25215898     0.16591618     2.41861476
Ti      1.28534137     0.34928149     9.09629747    -0.25246777    -0.16627150    -2.42058140
Ti      8.05821532     3.42270897     5.36515289     0.25246777     0.16627150     2.42058140
O       2.95729578     1.32818194     7.37956734     0.93039593     0.79248268    -2.35021028
O       6.38626098     2.44380839     7.08188302    -0.93039593    -0.79248268     2.35021028
O       1.71454328     1.32819713     0.14888874    -0.93084999     0.79237829    -2.34854883
O       7.62901354     2.44379319    14.31256123     0.93084999    -0.79237829     2.34854883
O       6.38624641     0.55781316     0.14884183    -0.93181724    -0.79227262    -2.34862802
O       2.95731029     3.21417716    14.31260814     0.93181724     0.79227262     2.34862802
O       7.62899896     0.55779797     7.37961432     0.93002672    -0.79268528    -2.35042445
O       1.71455766     3.21419242     7.08183605    -0.93002672     0.79268528     2.35042445
O       0.33948987     2.29433841     3.90639847    -1.86008764     0.56571464     0.06598739
O       9.00406683     1.47765192    10.55505189     1.86008764    -0.56571464    -0.06598739
O       5.01126568     1.47761686     3.32437263    -1.86098521    -0.56618926    -0.06422464
O       4.33229108     2.29437353    11.13707747     1.86098521     0.56618926     0.06422464
O       0.33947529     0.40834318     3.32432645    -1.85974491     0.56604348    -0.06384874
O       9.00408140     3.36364715    11.13712365     1.85974491    -0.56604348     0.06384874
O       4.33227651     0.40837824    10.55509794     1.86087697     0.56569176    -0.06580021
O       5.01128025     3.36361208     3.90635235    -1.86087697    -0.56569176     0.06580021
