# total energy = -19072.96226042 eV

CRYSTAL
PRIMVEC
        5.93400000     0.00000000     0.00000000
        0.00000000     9.29699974     0.00000000
        0.00000000     0.00000000     4.64899994
PRIMCOORD
22 1
Ti      4.41979798     6.79538600     2.52263002     1.02675423     1.20294531    -1.95871339
Ti      4.39237898     2.38144701     2.17426502     0.92472382     0.23087101     0.10874819
Ti      1.52619302     7.30142100     2.62075001     0.29713659    -0.27921574    -1.35323534
Ti      1.57992297     2.22862898     2.06570002    -1.06394654     1.08040752     0.98579140
Ti      2.96726099     4.68350500     4.51449103     0.53831413    -1.02634954     0.61566142
Ti      3.01265599     0.21728298     0.13012098     0.82553422    -1.13764261    -0.66349373
Ti      5.79535101     4.50169801     4.42265798     0.02169421    -0.19333649    -0.41720175
Ti      0.00328000     9.05334198     0.21789799    -1.73015818     0.32235038    -1.03328792
O       4.52440098     5.54897598     0.90006002    -0.78090757    -0.49460921     0.48035193
O       4.47428297     0.64891202     1.17970400     1.33900428     1.47794444    -0.15403073
O       1.43312598     0.49039999     1.24560498     0.28720467     2.87626281     0.08631916
O       4.44986002     8.27224202     3.89418501    -0.27075192     1.61849050    -0.29968018
O       4.26701398     4.00618601     3.36181502     0.90136174    -0.78398389     0.02531998
O       1.54975701     8.71152899     3.68527398    -0.61823510     0.44601380     0.60927120
O       1.58163201     3.95117697     3.50698199    -1.06339786    -0.34409601    -0.01491703
O       2.95989601     6.23256699     3.41373800    -2.02251611    -0.25636119     0.38722808
O       2.98044200     1.60461301     3.13149501    -0.42192770    -1.30690379     2.23233055
O       0.08590499     6.23653598     3.49549498     0.62243885    -0.08938803    -1.13280970
O       3.04898803     7.96051201     1.64716198    -0.37261444    -1.40440520    -0.69689571
O       2.96767200     2.92702902     1.02514799    -0.26020808     1.54676364    -1.14912799
O       0.08079701     7.69874999     1.24457499     0.63724301    -2.54267465     2.74108469
O       5.75564102     3.19151001     1.08222002     1.18325400    -0.94308356     0.60128689
