# total energy = -19934.71681338 eV

CRYSTAL
PRIMVEC
        4.93517106     0.00000000     0.00000000
        2.02022098     4.84846506     0.00000000
        0.00000000     0.00000000     9.02222318
PRIMCOORD
24 1
Ti      2.98594326     2.87319600     3.34718045     4.10273295    -3.74132287     1.26339223
Ti      3.96944885     1.97526920     5.67504283    -4.10273295     3.74132287    -1.26339223
Ti      5.07930689     1.97527085     1.16389512    -8.38787082     1.72336995     2.35123923
Ti      1.87608527     2.87319454     7.85832821     8.38787082    -1.72336995    -2.35123923
Ti      1.97583287     0.44896345     1.16393129     4.10353873    -3.74159849    -1.26255379
Ti      4.97955927     4.39950190     7.85829204    -4.10353873     3.74159849     1.26255379
Ti      0.86597476     0.44896166     5.67500661     8.38892626    -1.72392788     2.35079135
Ti      6.08941739     4.39950368     3.34721662    -8.38892626     1.72392788    -2.35079135
O       2.27336694     1.70722702     4.60397144    -1.28110662     0.08919983    -1.23367129
O       4.68202513     3.14123819     4.41825184     1.28110662    -0.08919983     1.23367129
O       1.61696391     1.70724661     0.09288885     1.82482058    -0.44979281    -1.35581699
O       5.33842827     3.14121868     8.92933413    -1.82482058     0.44979281     1.35581699
O       3.67191471     0.71700554     0.09285956     1.28190803    -0.08870489    -1.23318612
O       3.28347740     4.13145966     8.92936343    -1.28190803     0.08870489     1.23318612
O       4.32831780     0.71698599     4.60400068    -1.82316581     0.44904231    -1.35419977
O       2.62707423     4.13147928     4.41822254     1.82316581    -0.44904231     1.35419977
O       1.40811912     2.94911144     2.43712758    -0.02810500    -2.77780983    -2.61871813
O       5.54727294     1.89935377     6.58509570     0.02810500     2.77780983     2.61871813
O       3.43829075     1.89930865     2.07401275     2.31570452    -2.69105306    -3.63449761
O       3.51710131     2.94915656     6.94821038    -2.31570452     2.69105306     3.63449761
O       0.39800870     0.52487874     2.07398391    -0.02757689    -2.77742596     2.62069223
O       6.55738341     4.32358646     6.94823917     0.02757689     2.77742596    -2.62069223
O       2.50699090     0.52492391     6.58512444    -2.31525534     2.68956722    -3.63622410
O       4.44840117     4.32354130     2.43709879     2.31525534    -2.68956722     3.63622410
