# total energy = -4979.10975139 eV

CRYSTAL
PRIMVEC
        4.58150027     0.00000000     0.00000000
        0.00000000     2.72288864     0.00000000
        0.00000000    -0.00010870     6.20778256
PRIMCOORD
6 1
Ti      2.29075014     1.36138980     3.10389100     0.00000000     0.00000000     0.00000000
Ti      0.00000000     0.00000000     0.00000000     0.00000000     0.00000000     0.00000000
O       2.29075014     0.53062965     1.20980529     0.00000000     0.01105318     2.65916032
O       2.29075014     2.19214996     4.99797670     0.00000000    -0.01105318    -2.65916032
O       0.00000000     0.83071716     4.31369766     0.00000000    -0.01106809     2.65886978
O       0.00000000     1.89206245     1.89408434     0.00000000     0.01106809    -2.65886978
