# total energy = -19519.38421461 eV

CRYSTAL
PRIMVEC
        7.60600008     0.00000000     0.00000000
        0.00000000     7.60600008     0.00000000
       -1.89786986    -1.89786986     4.85670466
PRIMCOORD
23 1
Ti      3.77162602     6.68587298     1.24799998     0.63063270     0.13569979    -0.01810366
Ti      3.81038497     2.89605898     1.18781502    -0.24600478     0.01075853     1.14355820
Ti      0.02537902     6.66505001     1.22978200    -0.73469840    -0.26604680     0.12834489
Ti     -0.05066602     2.83002797     0.99328300     0.60246472     0.21169494     1.73668338
Ti      5.65167124     2.79321121     3.64367980    -0.73305829     0.71508807     0.13083603
Ti      5.67302920    -1.06356578     3.59679083     0.72139859    -0.06353533     0.01582566
Ti      2.07910424     2.88929122     3.70010581    -0.40984891     0.24907031    -0.42249848
Ti      1.91972023    -0.94168277     3.68747779    -0.71602061     0.06938304    -0.12269412
O       3.94692001     4.81328101     0.93880399    -0.43276439    -0.94185714    -0.92141918
O       3.75489201     0.99091599     0.83743501     0.05163497     0.25657665    -0.30003911
O      -0.20879302     4.70195699     0.77278299     0.74638715     0.88498663     0.08581857
O      -0.14001802     0.93704702     0.68780702     0.66452603    -0.77247795     0.76694107
O       5.63840122     4.69049421     4.09965882     0.81891363     0.06858754    -0.79659516
O       5.74735522     0.94572822     4.01133083     0.38963232    -0.25167484    -1.16283969
O       1.91427521     4.77888724     4.08066681    -0.28034934    -0.38477422     0.25334991
O       1.81014625     1.02213925     4.00132483     0.01233050     0.07905759     0.88965602
O       3.83147422     2.80059323     3.24772483     0.03540205     0.03567047    -0.69464265
O       3.79504725    -0.97278580     3.23379683    -0.11049140     0.30819054     0.22267099
O       0.03697023    -0.93742877     3.21144280    -0.19587545    -0.25843967     0.37525830
O       5.73766101     6.68427899     1.69765999    -0.49122281     0.13497191    -0.62979684
O       5.78160002     2.76471602     1.66739402    -0.11666333     0.13851155    -0.27559665
O       1.91553502     6.62973801     1.66347900    -0.28420831     0.04762302    -0.44573432
O       1.75397498     2.99070799     1.72151800     0.07788363    -0.40706466     0.04101631
