# total energy = -19073.08630316 eV

CRYSTAL
PRIMVEC
        7.60600008     0.00000000     0.00000000
        0.00000000     7.60600008     0.00000000
       -1.89786986    -1.89786986     4.85670466
PRIMCOORD
22 1
Ti      3.56169702     6.73595098     1.19505199     1.36633126     1.56860337     0.44125109
Ti      3.80210700     3.13370798     1.24257899     2.17257166    -1.50231593     0.21086628
Ti     -0.14324902     6.46345899     1.14544803     0.39782797     0.91463944    -0.73020102
Ti      0.25741499     2.65911801     1.10054099    -1.63399760     0.34707463     1.31303433
Ti      5.72927122     2.85822524     3.53753579     1.00994667     0.75535645    -1.17388746
Ti      5.51033620    -1.26489577     3.71801381     0.88379210     3.51996032    -0.52494438
Ti      2.00036922     2.98562820     3.59166279    -2.31404075     1.46836245     0.98064611
Ti      1.61046523    -0.61488179     3.73964583    -0.72203160    -1.90885686     2.45184474
O       3.47603798     4.92810702     0.77216698     0.33749984    -1.11396454     0.53678458
O       3.90255199     1.16270402     0.82709298     0.19844193    -0.33035525     0.10086956
O      -0.04134700     4.47577599     0.47132701     0.59639151    -0.40777197     2.88085505
O      -0.27232700     0.87288502     0.80176000     0.00352576    -0.04650536     0.66354669
O       5.92937224     4.70637922     4.04856379    -0.20152160    -2.30448730     1.25457951
O      -0.21055375    -0.55245676     3.91295582    -0.44194734     0.05523143    -1.28033992
O       1.83336623     4.89826122     4.23910883    -0.00529493     0.73771868    -2.07610152
O       1.90099524     1.16909225     4.10338079     0.61203077     0.64346200    -0.10752820
O       3.72754222     3.33787822     3.38844481     1.63916809    -0.60579430    -0.89368365
O      -0.03222679     3.13200720     3.02970883     1.78987439    -1.22316550     0.23734659
O       5.75400401     6.47452001     1.80210402    -0.96725297    -0.32519608    -0.31286095
O       5.69993898     3.03835802     1.75249202    -2.12602568    -0.45621054    -3.12512897
O       1.83005300     6.73461798     1.89305398    -1.07612740    -0.06100690    -0.88261993
O       2.06362802     2.61463802     1.66556597    -1.51916258     0.27522153     0.03567124
