# total energy = -19960.51057820 eV

CRYSTAL
PRIMVEC
        5.93400000     0.00000000     0.00000000
        0.00000000     9.29699974     0.00000000
        0.00000000     0.00000000     4.64899994
PRIMCOORD
24 1
Ti      4.39287599     6.94556502     2.22562701     1.23145808    -0.81350788     0.70899816
Ti      4.49737198     2.19718702     2.27570099    -0.17348654     2.19080156     1.03716900
Ti      1.51246298     7.02396602     2.39162500    -1.47086670    -1.61083452    -0.27234909
Ti      1.47555700     2.33005501     2.29881000     0.71611986     0.88935314    -0.19426054
Ti      2.99124500     4.67372898     4.62212600    -0.61609928    -1.78814378     0.84565440
Ti      2.98352700     9.29499501     4.63519800    -0.16239659     0.89261536    -0.70504097
Ti      5.90826701     4.68151598     4.59421401     0.86893086    -0.99616786    -0.13562728
Ti      5.92966398     9.25003198     0.11168598     0.21820061     0.51625508    -0.67846938
O       4.56474101     5.50398401     0.95724402    -1.19878089     1.20465689     0.43357866
O       4.47994300     0.93852702     0.93844299    -0.49240912    -1.10854722    -0.89760227
O       1.45466497     5.52732401     0.98875102     0.37907588     1.03941795     0.30845305
O       1.46059599     0.96148400     0.88801203    -0.07957053    -0.18535861     0.51031506
O       4.40865298     8.38139700     3.84035498     0.10589478     0.21019882    -0.56399894
O       4.44960199     3.65354102     3.75370702     0.01467561     1.21507115     0.25035715
O       1.47111799     8.55019301     3.76426300     0.27184052    -1.62682422    -0.76717479
O       1.52308500     3.83704498     3.75332898    -0.43747182    -0.60587143    -0.65344791
O       3.07425597     5.98033699     3.24889600    -0.76283965     1.95336396    -0.97107131
O       2.91940400     1.39078000     3.19060898    -0.05930534     0.11125630     0.09301895
O       0.01525502     6.25337901     3.34059798     0.30003808    -0.43468012    -0.40271924
O       0.01645799     1.40082500     3.24720698    -0.23193236     0.28327191    -0.37576198
O       2.97267903     7.88940498     1.39568499    -0.30871813    -0.20719397     0.66757664
O       2.91855499     3.32395599     1.39844899    -0.17870562    -1.17980872     0.69530651
O       5.89502298     7.80667500     1.41121502     0.89483242     0.90150058    -0.10726929
O       5.77212997     3.24241999     1.31809602     1.17151613    -0.85082463     1.17436517
