# total energy = -4981.55935474 eV

CRYSTAL
PRIMVEC
        2.96637692     0.00000000     0.00000000
        2.18723223     4.10105976     0.00000000
       -0.00001407    -0.00006336     4.80970019
PRIMCOORD
6 1
Ti      2.57679731     2.05049810     2.40485020     0.00000000     0.00000000     0.00000000
Ti      0.00000000     0.00000000     0.00000000     0.00000000     0.00000000     0.00000000
O       1.90944495     0.79922376     0.93733978    -6.51416635     2.90194248     3.82599216
O       3.24414969     3.30177254     3.87236067     6.51416635    -2.90194248    -3.82599216
O       0.66734639     1.25124887     3.34219091     6.51364751    -2.90276806     3.82593199
O       1.51987145     2.84974750     1.46750948    -6.51364751     2.90276806    -3.82593199
