# total energy = -19517.56409100 eV

CRYSTAL
PRIMVEC
        5.93400000     0.00000000     0.00000000
        0.00000000     9.29699974     0.00000000
        0.00000000     0.00000000     4.64899994
PRIMCOORD
23 1
Ti      4.46813499     7.07570997     2.24992101     0.99859447     0.26247605    -0.11650675
Ti      4.49832000     2.26569298     2.38185400    -0.41825899    -0.25006996    -0.48477937
Ti      1.41633502     7.04708598     2.20823698    -0.43961407     0.54005579     0.35942030
Ti      1.47112101     2.22791697     2.34981999     0.43939269     0.23817732    -0.23025060
Ti      2.97519902     4.40994899     0.15959197     0.21333556     0.01212867     0.58005060
Ti      2.93874501     9.28449100     4.57061101     0.59135369    -0.69945268    -0.54274002
Ti      0.03981403     4.63066602     4.64638602    -0.30719603     0.35226749    -0.04993598
Ti      0.03658901     0.17402899     0.04953798    -0.81479292    -1.57546719     0.56234032
O       4.46623699     5.60250199     0.85057401    -0.68506863     0.04192134     0.44974910
O       4.33283998     0.91506801     1.01638799     1.18316144     0.28239439     0.09637218
O       1.51700899     5.50084800     0.97890700     0.10532014     0.02281726    -0.54238547
O       1.61206801     0.96022302     0.88391900    -1.41848534     0.25677643     0.84371733
O       4.50855202     8.55333801     3.78941998    -0.32222748    -1.42640588    -1.71560984
O       4.37675899     3.69681502     3.75306000     0.53752968     0.47724449    -0.11885520
O       1.31669100     8.43491201     3.57549600     1.17290942     0.01034098     0.87592735
O       1.51291702     3.62524602     3.77695399    -0.07516263     1.52307143     0.14774670
O       2.86657100     1.44603399     3.34173999     1.04636764     0.40081379    -1.08190081
O       5.87447100     6.10695698     3.21909301    -0.02558454    -0.03553857    -0.44374095
O       0.04031198     1.39847900     3.33603700    -0.45863252     1.59480626    -1.52259372
O       2.90429700     7.93539599     1.20387300     0.20039005    -1.81697151     1.90039690
O       3.01634298     3.11432999     1.40565099    -0.17566966     0.73626549     0.31685567
O       0.04423800     7.97091098     1.31973398    -0.67743734    -0.38829380     0.36583083
O       0.04236101     3.26700900     1.42527002    -0.67022411    -0.55935733     0.35089118
