# total energy = -4982.59275118 eV

CRYSTAL
PRIMVEC
        4.65505363     0.00000000     0.00000000
       -0.00000756     3.10336872     0.00000000
       -2.32755425    -1.55173172     5.15701713
PRIMCOORD
6 1
Ti     -0.00020007     2.32763928     1.28925401    -0.00637222    -0.01034972    11.47967314
Ti      2.32769194    -0.77600260     3.86776242     0.00637222     0.01034972   -11.47967314
O       0.00004899     0.77583375     0.84003582     0.00397698     0.00476168    -5.09002896
O       2.32744278     0.77580288     4.31698066    -0.00397698    -0.00476168     5.09002896
O      -0.00001995    -0.77583661     3.41854428    -0.00232299    -0.00017843    -1.63681270
O       2.32751166     2.32747319     1.73847226     0.00232299     0.00017843     1.63681270
