# total energy = -39036.40919928 eV

CRYSTAL
PRIMVEC
        7.60600008     0.00000000     0.00000000
        0.00000000     7.60600008     0.00000000
       -3.79573973    -3.79573973     9.71340985
PRIMCOORD
46 1
Ti      1.93930344     4.96828444     5.96855861    -0.07647106     0.32022099    -0.30273388
Ti      3.94612899     6.56898201     1.24362300    -0.34971901     0.39709418    -0.00095028
Ti      1.80209143     1.05083145     6.17554365    -0.06822322    -0.98738497    -0.29502108
Ti      3.76911799     2.55946102     1.17410202     0.39997433    -0.49190107     0.44920557
Ti     -1.91401353     4.77273444     6.05845064     0.37073239     0.18240724     0.22155950
Ti      0.12810402     6.52250898     1.28256902     0.32184798     0.92535271     0.17151296
Ti     -2.11780757     0.89370947     6.11701162     0.34012365     0.40342423    -0.21998058
Ti     -0.11905700     2.69835502     1.15780902     0.70162192    -1.33618764     0.80979598
Ti      3.62227045     0.87808344     8.62639961     0.77552316     0.41068272     0.57919082
Ti      5.73953800     2.86479698     3.69904698     0.43152872     0.16759896    -0.26302472
Ti      3.79993346    -2.91714552     8.42212465     0.69984683    -0.64540935     1.40678784
Ti      5.81522702    -0.86008401     3.63883502    -0.09905821     0.64473032    -0.55253722
Ti     -0.20619857     0.89646643     8.41021361     0.13931039    -0.91108154     0.79247882
Ti      1.92383501     2.95262501     3.37560099    -0.36130106     0.92615490     0.62611065
Ti      0.04732146    -2.95072156     8.45110261    -0.77154027     0.08556557     0.65575676
Ti      2.04473100    -0.61294601     3.56085102     0.05074228    -1.59323583     1.03987432
O       2.04676844    -0.83649657     5.89656664    -0.23009993     0.06857032    -1.53117940
O       3.57516399     0.70843398     0.85346098     0.66016235     1.93270770    -1.54764810
O      -1.94616057     2.89857744     5.69939763     0.37187139    -0.20988051    -0.96149447
O       0.06448300     4.62904202     0.87137702    -0.63875945     0.66707965    -1.04427219
O       5.35228545    -0.91773655     5.66557061     0.60814763     0.39503035    -0.21216520
O      -0.02515899     0.82952101     0.91414402     0.47818371     0.74292593     0.05750789
O       3.91297043     2.88121746     9.15519363    -0.34261916    -1.60343437    -2.27330881
O       5.79041702     4.91895998     4.04564998     0.04012568    -1.19383537    -0.05893896
O       3.94341447    -1.14046053     9.00846463    -0.95131829     1.82413589    -1.64108948
O       5.94002902     0.97586799     4.14124802    -0.45742333     0.93793724     0.09640329
O       0.06111844     2.64679347     8.97989065    -0.35392457     0.43830435    -0.48102376
O       1.96844100     4.81728403     4.04018602     0.08853520    -0.39908652     1.17058257
O      -0.02529854    -1.01051958     9.01985263     0.04524680     0.34170025    -0.71530173
O       1.87482700     1.19446900     4.03055901     0.10623005     0.30256728     0.84955348
O       1.81612547     0.85319947     8.16106262     0.70522583     0.34973315     0.07465432
O       3.86766100     2.99250502     3.16288200     0.14648789    -0.17686908    -0.12756816
O       1.91936743    -3.00371056     8.06971964    -0.29251631     0.07699891    -0.30978282
O       3.88324501    -0.46210800     3.12671803     1.19685848    -1.15305535     0.92712883
O      -2.11282256     0.94147147     8.08928465     0.73741426    -0.22894962    -0.17243701
O       0.00769201     2.99437000     3.11642098    -0.70686517    -0.01526156     0.82827913
O      -1.89752855    -2.80591855     8.08791064     0.79664041    -0.66845467    -0.58803722
O       0.22233700    -0.71077898     3.30782301    -2.31026946    -0.72768571    -0.24632206
O       3.86822146     4.65180744     6.44893360    -1.90016318    -0.12189245     0.21813222
O       5.80408799     6.73907403     1.52196701    -0.26812528    -1.37727877     1.62169898
O       3.64515144     1.13510145     6.39985664     0.30224460     0.60163399     0.62335237
O       5.69912002     2.72408399     1.50841901    -1.48527851     0.14524964     0.52892240
O       0.00963447     4.85622644     6.46307861     0.54100119    -0.31993405     0.10644320
O       2.02809599     6.41863799     1.67301002     0.01945940    -0.24416799     0.19744820
O      -0.09487153     0.75029746     6.58208264    -0.42541000     0.67838633    -1.07023931
O       1.88826900     2.71466903     1.48822201     1.01400027     0.43879363     0.56267611
