# total energy = -4988.49300078 eV

CRYSTAL
PRIMVEC
        3.19330778     0.00000000     0.00000000
        0.49909539     4.97847980     0.00000000
       -0.00000332    -0.00006493     5.00971612
PRIMCOORD
6 1
Ti      1.84619998     2.48920743     2.50485806     0.00000000     0.00000000     0.00000000
Ti      0.00000000     0.00000000     0.00000000     0.00000000     0.00000000     0.00000000
O       1.69391958     0.97021978     0.97631987     0.23931991    -0.53099188    -0.57544087
O       1.99848043     4.00819509     4.03339619    -0.23931991     0.53099188     0.57544087
O       0.15227903     1.51896134     3.48117895    -0.23953460     0.53157320    -0.57572960
O       0.34681325     3.45945341     1.52853711     0.23953460    -0.53157320     0.57572960
