# total energy = -19936.85487264 eV

CRYSTAL
PRIMVEC
        6.00574982     0.00000000     0.00000000
        0.31943000     6.38394737     0.00000000
        0.00000000     0.00000000    10.75233271
PRIMCOORD
24 1
Ti      2.36608929     3.78312114     3.98903874     0.02685364    -1.07532187     0.68714377
Ti      3.95909028     2.60082599     6.76329409    -0.02685364     1.07532187    -0.68714377
Ti      5.30970733     2.60082817     1.38708470     0.04608936     0.54264181    -0.52668502
Ti      1.01547231     3.78311920     9.36524825    -0.04608936    -0.54264181     0.52668502
Ti      2.20637442     0.59114770     1.38712780     0.02685364    -1.07532187    -0.68714377
Ti      4.11880515     5.79279961     9.36520516    -0.02685364     1.07532187     0.68714377
Ti      0.85575743     0.59114533     6.76325094    -0.04608936    -0.54264181    -0.52668502
Ti      5.46942221     5.79280198     3.98908190     0.04608936     0.54264181     0.52668502
O       2.01333437     2.24789630     5.48683308     1.42490513     1.39795533    -0.12467155
O       4.31184519     4.13605083     5.26549975    -1.42490513    -1.39795533     0.12467155
O       1.21453027     2.24792206     0.11070129    -1.20042589     1.00155484     0.20497099
O       5.11064936     4.13602513    10.64163124     1.20042589    -1.00155484    -0.20497099
O       4.15213032     0.94407721     0.11066642    -1.42490513    -1.39795533    -0.12467155
O       2.17304925     5.43986992    10.64166611     1.42490513     1.39795533     0.12467155
O       4.95093449     0.94405150     5.48686801     1.20042589    -1.00155484     0.20497099
O       1.37424502     5.43989575     5.26546482    -1.20042589     1.00155484    -0.20497099
O       0.41249820     3.88307854     2.90447336     0.42794203     0.05925675     0.54636245
O       5.91268142     2.50086859     7.84785953    -0.42794203    -0.05925675    -0.54636245
O       3.34622109     2.50080911     2.47172725     0.51127639     0.57596820    -0.09531443
O       2.97895854     3.88313801     8.28060540    -0.51127639    -0.57596820     0.09531443
O       0.25278333     0.69110491     2.47169293     0.42794203     0.05925675    -0.54636245
O       6.07239630     5.69284221     8.28063972    -0.42794203    -0.05925675     0.54636245
O       2.81924366     0.69116439     7.84789378    -0.51127639    -0.57596820    -0.09531443
O       3.50593596     5.69278274     2.90443899     0.51127639     0.57596820     0.09531443
