# total energy = -19517.18937783 eV

CRYSTAL
PRIMVEC
        5.17600016     0.00000000     0.00000000
        0.00000000     5.50899976     0.00000000
        0.00000000     0.00000000     9.26300011
PRIMCOORD
23 1
Ti      1.84368799     3.27315402     3.38092398    -0.21902465    -0.11818569     2.98631686
Ti      3.31340202     2.23890899     5.83697303     0.54300588     0.31400920    -2.91786893
Ti      4.27794700     2.09183301     1.49686802     1.57592484    -0.26010626    -1.45741417
Ti      0.92757998     3.35330299     7.75263902    -0.13202337    -0.25748914     2.11320770
Ti      1.87833502     0.22861701     1.42725200     0.21094547     0.89556236    -2.85535227
Ti      3.40210499     5.27001998     7.89748001    -0.64354376    -1.06069898     2.07935037
Ti      0.72310097     0.59759902     5.88007901    -0.10584516    -0.75318232    -3.06006898
Ti      4.48720897     4.95268699     3.35738602     0.47333975    -0.10993656     3.82356452
O       1.73565301     1.88243699     4.79612900    -0.41086938     0.40210243    -0.01556804
O       3.47466302     3.63230799     4.44823698    -0.00265364    -0.79516948     0.91688298
O       0.30829898     2.61453001     0.13898401    -0.39150434     0.25013269    -0.87261602
O       3.47757699     0.79528202     0.24549797    -0.09481281     0.41523666    -0.51014459
O       1.78833499     4.76776103     8.96019901    -0.04855659    -0.31898686     0.74564128
O       4.20269302     0.75171798     4.87428202     0.15532451     0.10466219    -0.95737761
O       0.92517302     4.74537101     4.56037202     0.29448064    -0.43948037    -0.97747439
O       0.08441398     3.34056802     2.64530199     0.13864730    -0.86806466    -0.66022174
O       5.09677598     2.06439300     6.72279098    -0.84600818     0.86399357     1.21752141
O       2.54958001     1.83440802     2.37109498     0.11841169    -0.04937780    -1.15024822
O       2.64301499     3.56728100     6.98283900     0.07271905     0.11555802     1.23345583
O       0.08345099     0.53242100     1.98175102     0.38848895     0.52510559     0.17753628
O       5.11542598     4.72285901     7.03072599    -0.98712400     0.43481741     1.22785545
O       2.39011102     0.76986299     6.90268600    -0.33516270     1.33010158    -0.42243086
O       2.85527798     4.56289302     2.35120199     0.24584101    -0.62060308    -0.66454685
