# total energy = -19961.32514889 eV

CRYSTAL
PRIMVEC
        7.60600008     0.00000000     0.00000000
        0.00000000     7.60600008     0.00000000
       -1.89786986    -1.89786986     4.85670466
PRIMCOORD
24 1
Ti      3.84619498     6.74532498     1.14490001     0.31349318    -1.93710686     0.19374169
Ti      3.83875099     2.77075398     1.14783499    -1.15977262     1.44456945     1.39162399
Ti     -0.02894499     6.61465101     1.24015202    -0.53186425     0.31893338    -1.27678639
Ti     -0.09270201     2.83932699     1.31228602     1.18555179    -0.09281660    -0.10950770
Ti      5.68440524     2.80849422     3.71253280    -0.24272894     0.36650986    -0.11493427
Ti      5.69112823    -0.92805376     3.63953682    -0.13459422    -0.38033649     0.23875324
Ti      1.97931421     2.82458623     3.68178882    -0.44036586     0.44537437    -0.73015526
Ti      1.97193325    -0.93993675     3.58641584     0.14857485    -0.61443860    -1.16450422
O       3.93368999     4.79781300     0.73698002    -0.41353844    -1.04720196     1.04843018
O       3.89522098     0.92945798     0.68165602    -0.23356115     0.56046804     0.32894860
O      -0.26833202     4.68998102     0.80597701     0.81066450     1.55685316     0.36929103
O      -0.06234100     1.05173402     0.69785202     0.20287863    -1.93038343     1.27154468
O       5.47458821     4.76010325     4.00277684     0.64647302    -0.01377289     0.77430420
O       5.70015023     0.95484521     4.15739280     0.32886427     0.48252451    -0.94154913
O       2.09706023     4.70733724     4.01462882    -0.49215329     1.67527591    -0.21905447
O       1.84223725     0.88804521     4.04701680    -0.26900845     0.17755017     0.08595227
O       3.73851022     2.66935521     3.18136182     1.29740253    -0.06275268     0.11893439
O       3.85248621    -0.78106779     3.13178881    -1.23588938    -0.22369300     0.26670269
O      -0.05881477     2.93868224     3.28090281     0.15933621    -0.22838552     0.26978955
O      -0.06509277    -1.02979978     3.11551280     1.47836815    -0.10780691     1.13646890
O       5.72574499     6.80169998     1.62740298    -0.46759822    -0.00514941    -0.51145843
O       5.65949200     2.82668802     1.73563798    -0.55757992    -0.32844132    -0.71229817
O       1.91630402     6.73391301     1.60500698    -0.17115892    -0.24694144    -0.30626195
O       1.90172000     2.80737300     1.73120300    -0.22179347     0.19116776    -1.40797544
