# total energy = -19960.99922603 eV

CRYSTAL
PRIMVEC
        5.93400000     0.00000000     0.00000000
        0.00000000     9.29699974     0.00000000
        0.00000000     0.00000000     4.64899994
PRIMCOORD
24 1
Ti      4.47500498     6.90732699     2.35804198    -0.74266959     1.36354804     0.24176426
Ti      4.43184799     2.41755500     2.37009002     0.36814097    -1.95514547    -0.05399242
Ti      1.47071301     6.92735598     2.20572598     0.87564967     1.48630721     0.76136666
Ti      1.48583701     2.40021201     2.32944498    -0.25477842    -1.10292859     0.72573013
Ti      2.97721201     4.65184300     0.01381798    -0.10632261    -0.16817206    -0.44962235
Ti      2.94416198     9.24037302     0.00496601     0.76295098     0.17476643    -0.40813398
Ti      5.91824899     4.67731902     0.00083801     0.08696837    -0.49327712    -0.03731366
Ti      0.02378302     0.01428001     0.03329599    -0.77758390     0.26211944    -0.46062102
O       4.39062598     5.56011601     0.87461998     0.53340126    -0.28301506    -0.58450684
O       4.42058101     0.86415597     0.93327298     0.42825956    -0.00593539    -0.46147822
O       1.45818501     5.54200899     0.90212799     0.05285213    -0.00403201    -0.41736167
O       1.51529202     0.90924701     0.87709901    -0.22827085    -0.00596650     0.20791542
O       4.48065601     8.28467398     3.70974901    -0.17633223     0.84963678     0.36354847
O       4.43126298     3.65238498     3.76291502     0.00317608     1.27046919     1.07743018
O       1.47462199     8.34567499     3.67507202    -0.01683353     0.14878054     0.42645876
O       1.44490398     3.74630500     3.78801999     0.39134621     0.13213290    -0.13251085
O       3.00820598     5.97515200     3.04781902    -0.90264061    -0.43584431     1.39666104
O       2.96903897     1.41913898     3.23997201     0.09654085     0.43613845    -0.53103919
O       5.84679799     6.01947298     3.28739000     1.08394278     0.00365997    -0.74846358
O       0.01400399     1.52587599     3.29706198     0.31414213    -0.49073199    -0.45273415
O       2.98465399     7.86802802     1.39081699    -0.78628889    -0.34693939     0.05304856
O       3.04199601     3.37751698     1.50724302    -0.77551956    -0.38158887    -0.53347736
O       5.93011801     7.86963503     1.37114398     0.45354739    -0.61800807     0.31083955
O       0.07546999     3.27433101     1.44671202    -0.68367818     0.16402616    -0.29350773
