# total energy = -19073.87414832 eV

CRYSTAL
PRIMVEC
        5.93400000     0.00000000     0.00000000
        0.00000000     9.29699974     0.00000000
        0.00000000     0.00000000     4.64899994
PRIMCOORD
22 1
Ti      4.43652501     7.03180498     2.36969298    -0.78325910     0.31441107    -0.75462549
Ti      4.44048299     2.33518200     2.18714397     1.17257209    -0.74855999    -0.89007665
Ti      1.46948501     7.11125100     2.58223501     1.40215291     0.44049647    -0.11011036
Ti      1.64513899     2.36507400     2.18439400    -1.57644215     0.75059219    -0.20368055
Ti      3.07265902     4.50612002     4.46231002    -1.76780789     0.39228338     0.17218581
Ti      2.96731603     9.24930500     0.00079001     0.52228432     0.64825479     0.96744374
Ti      5.75922699     4.67419900     4.51261001     1.44386008    -1.14230531     0.25018257
Ti      5.92959598     9.23475199     0.23052601    -0.96790063     0.49809409     0.99034740
O       4.37447401     5.36948303     0.94891202     0.13634539     1.22067924     0.67623226
O       4.30005401     0.62277399     1.21538499     1.42709494     1.42807222    -0.86106868
O       1.49392500     0.86495699     1.02443900    -0.28193519     0.45761360    -0.43115616
O       4.43525001     8.39590201     3.84859798     0.73330023     0.21477564    -0.87638372
O       4.43428998     3.91008499     3.44984202     0.67714706    -0.97886562    -0.58797449
O       1.44352399     8.28189702     4.01978899    -0.30231454     0.32121318    -1.23755289
O       1.45241301     3.96931998     3.65038501     0.13553395    -0.35790515    -0.19716898
O       3.04301700     6.21452099     3.29858300    -0.80733132    -1.26849124     0.40806148
O       3.00851099     1.60809198     3.16590302    -0.63121017    -1.29458820     2.33693849
O       5.91690102     6.22306202     3.32764499    -0.19681622    -1.35372411     0.40049420
O       2.89899898     7.91340402     1.44794500    -0.17627721    -1.16638961     0.46773012
O       3.05126698     2.95521798     1.09745901    -0.29366380     1.88304683    -0.78202626
O       0.07448403     7.98297400     1.56301100    -0.14716203    -0.96649861     0.03619138
O       5.89826498     3.02570698     1.17086901     0.28182926     0.70779514     0.22601676
