# total energy = -4986.40649610 eV

CRYSTAL
PRIMVEC
        3.80258759     0.00000000     0.00000000
        1.78944639     3.35522786     0.00000000
       -2.79605272    -1.67763537     5.02192333
PRIMCOORD
6 1
Ti      1.34199508     2.51655011     1.25548050     0.00057233    -0.00057233     0.00000000
Ti      1.45398605    -0.83895774     3.76644222    -0.00057233     0.00057233    -0.00000000
O       0.44740100     0.83880269     0.81803017     0.00004345    -0.00001208    -2.84638092
O       2.34857996     0.83878966     4.20389260    -0.00004345     0.00001208     2.84638092
O      -0.44736486    -0.83878097     3.32899184    -0.00001208     0.00004345    -2.84638092
O       3.24334575     2.51637324     1.69293088     0.00001208    -0.00004345     2.84638092
