# total energy = -19906.76380592 eV

CRYSTAL
PRIMVEC
        6.62421356     0.00000000     0.00000000
        2.71163351     6.50783279     0.00000000
        0.00000000     0.00000000    12.11004288
PRIMCOORD
24 1
Ti      4.00787037     3.85653580     4.49273953    -0.24805935    -2.08967387     0.49718340
Ti      5.32797680     2.65129716     7.61730348     0.24805935     2.08967387    -0.49718340
Ti      6.81767930     2.65129938     1.56223356    -0.09608910    -1.12157346     0.16349600
Ti      2.51816792     3.85653385    10.54780952     0.09608910     1.12157346    -0.16349600
Ti      2.65205374     0.60261939     1.56228211    -0.24805935    -2.08967387    -0.49718340
Ti      6.68379346     5.90521378    10.54776097     0.24805935     2.08967387     0.49718340
Ti      1.16235114     0.60261699     7.61725487     0.09608910     1.12157346     0.16349600
Ti      8.17349606     5.90521617     4.49278808    -0.09608910    -1.12157346    -0.16349600
O       3.05141765     2.29151862     6.17966220     1.81015963     2.04358940    -0.77965930
O       6.28442945     4.21631436     5.93038081    -1.81015963    -2.04358940     0.77965930
O       2.17036333     2.29154492     0.12467968    -0.24994654    -0.73274102     1.55964513
O       7.16548393     4.21628817    11.98536293     0.24994654     0.73274102    -1.55964513
O       4.92861280     0.96239781     0.12464037    -1.81015963    -2.04358940    -0.77965930
O       4.40723437     5.54543516    11.98540224     1.81015963     2.04358940     0.77965930
O       5.80966720     0.96237157     6.17970145     0.24994654     0.73274102     1.55964513
O       3.52617985     5.54546149     5.93034149    -0.24994654    -0.73274102    -1.55964513
O       1.89004224     3.95843300     3.27122472     0.61992817     2.68442759     2.55771869
O       7.44580486     2.54939998     8.83881829    -0.61992817    -2.68442759    -2.55771869
O       4.61503197     2.54933942     2.78383530     0.59165888     2.09230694     1.58854279
O       4.72081513     3.95849356     9.32620751    -0.59165888    -2.09230694    -1.58854279
O       0.53422558     0.70451639     2.78379658     0.61992817     2.68442759    -2.55771869
O       8.80162159     5.80331658     9.32624616    -0.61992817    -2.68442759     2.55771869
O       3.36499848     0.70457701     8.83885687    -0.59165888    -2.09230694     1.58854279
O       5.97084862     5.80325597     3.27118607     0.59165888     2.09230694    -1.58854279
