# total energy = -4990.36164273 eV

CRYSTAL
PRIMVEC
        3.01131486     0.00000000     0.00000000
        0.00000000     4.71827893     0.00000000
        0.00000000    -0.00006123     4.71827893
PRIMCOORD
6 1
Ti      1.50565738     2.35910880     2.35913941     0.00000000     0.00000000     0.00000000
Ti      0.00000000     0.00000000     0.00000000     0.00000000     0.00000000     0.00000000
O       1.50565738     0.91951112     0.91952306     0.00000000    -0.15801569    -0.15801569
O       1.50565738     3.79870647     3.79875577     0.00000000     0.15801569     0.15801569
O       0.00000000     1.43957285     3.27866343     0.00000000     0.15840238    -0.15840238
O       0.00000000     3.27864475     1.43961540     0.00000000    -0.15840238     0.15840238
