# total energy = -4979.97135236 eV

CRYSTAL
PRIMVEC
        4.56889140     0.00000000     0.00000000
        0.00000000     3.06804333     0.00000000
        0.00000000    -0.00009833     6.08738801
PRIMCOORD
6 1
Ti      2.28444570     1.53397244     3.04369389     0.00000000     0.00000000     0.00000000
Ti      0.00000000     0.00000000     0.00000000     0.00000000     0.00000000     0.00000000
O       2.28444570     0.59789729     1.18634224    -0.00000000     0.16701507     2.81358160
O       2.28444570     2.47004766     4.90104553    -0.00000000    -0.16701507    -2.81358160
O       0.00000000     0.93603616     4.23003729     0.00000000    -0.16682815     2.81334557
O       0.00000000     2.13190872     1.85735042     0.00000000     0.16682815    -2.81334557
