# total energy = -19914.70678999 eV

CRYSTAL
PRIMVEC
        7.75327748     0.00000000     0.00000000
        0.00002539     3.53649927     0.00000000
        0.00000000     0.00000000    11.79988234
PRIMCOORD
24 1
Ti      2.81020510     2.09572621     4.37767219    -0.13996962     0.07357497     2.09060487
Ti      4.94309743     1.44077312     7.42221032     0.13996962    -0.07357497    -2.09060487
Ti      6.68671113     1.44077432     1.52222187    -0.13904660    -0.07400897    -2.08968518
Ti      1.06659140     2.09572511    10.27766075     0.13904660     0.07400897     2.08968518
Ti      2.81019257     0.32747663     1.52226921    -0.13996962     0.07357497    -2.09060487
Ti      4.94310996     3.20902275    10.27761341     0.13996962    -0.07357497     2.09060487
Ti      1.06657887     0.32747531     7.42216298     0.13904660     0.07400897    -2.08968518
Ti      6.68672366     3.20902407     4.37771952    -0.13904660    -0.07400897     2.08968518
O       2.45397012     1.24526150     6.02138968     3.16837237     0.28825291    -0.77029971
O       5.29933240     2.29123777     5.77849283    -3.16837237    -0.28825291     0.77029971
O       1.42273165     1.24527577     0.12148639    -3.16743418     0.28835138    -0.76991044
O       6.33057094     2.29122356    11.67839577     3.16743418    -0.28835138     0.76991044
O       5.29931994     0.52298813     0.12144811    -3.16837237    -0.28825291    -0.77029971
O       2.45398259     3.01351119    11.67843405     3.16837237     0.28825291     0.77029971
O       6.33055847     0.52297387     6.02142796     3.16743418    -0.28835138    -0.76991044
O       1.42274400     3.01352545     5.77845455    -3.16743418     0.28835138     0.76991044
O       0.28170983     2.15109931     3.18744263    -0.99853456     0.20636016     0.30433851
O       7.47159270     1.38539995     8.61243988     0.99853456    -0.20636016    -0.30433851
O       4.15835843     1.38536701     2.71253614    -1.00008108    -0.20619278    -0.30502576
O       3.59494410     2.15113232     9.08734620     1.00008108     0.20619278     0.30502576
O       0.28169736     0.38284968     2.71249848    -0.99853456     0.20636016    -0.30433851
O       7.47160517     3.15364964     9.08738385     0.99853456    -0.20636016     0.30433851
O       3.59493163     0.38288263     8.61247748     1.00008108     0.20619278    -0.30502576
O       4.15837090     3.15361670     3.18740497    -1.00008108    -0.20619278     0.30502576
