# total energy = -19960.14047491 eV

CRYSTAL
PRIMVEC
        7.60600008     0.00000000     0.00000000
        0.00000000     7.60600008     0.00000000
       -1.89786986    -1.89786986     4.85670466
PRIMCOORD
24 1
Ti      3.76409202     6.49971101     1.27458500    -0.59084847     1.49499137    -0.81741390
Ti      3.80044200     2.84026501     1.26473299    -1.25719766    -1.50634717    -0.80545236
Ti      0.03826999     6.75095601     1.14355701     0.19226074    -0.40553048     1.68077293
Ti     -0.03256901     2.92721302     1.18777898     1.19203766     0.51279283    -0.40572743
Ti      5.73252423     2.96204923     3.58047879     0.81615201    -0.39998744     1.61313695
Ti      5.72129022    -0.95284476     3.57249779     1.71167631     0.26101978     0.79317405
Ti      1.90648524     2.76997921     3.62527480    -1.36577976     0.04294155    -0.32729281
Ti      1.92632325    -1.08545478     3.62609879    -1.71121583     0.14903714     1.36468344
O       3.49698001     4.63372800     0.83078002     1.33128377     0.85425628    -0.81052360
O       3.63318399     0.85943598     1.03261601     1.01961556     0.12959162    -0.61682150
O       0.09365199     4.94440801     0.70407001    -0.67576741    -1.68302033     0.60231611
O       0.06148902     1.01919702     0.64268402    -0.61377989     0.47660146     1.21895455
O      -1.51497578     4.79727620     4.12482480    -0.82548794     0.73521571    -1.93647977
O       5.72242922     1.10525220     4.14582879    -0.43301970    -0.68183856    -1.83845463
O       1.59974823     4.61876921     4.12113781     1.26510715     0.39627451     0.58754846
O       1.84170320     0.76138822     4.04009579     0.93924799     1.66722835     0.92452199
O       3.76405720     3.03165022     3.24701081     0.13044728    -0.50309514     0.14797887
O       3.80896424    -1.19922476     3.21653581     0.70822683    -0.19974831     0.66243109
O       0.04274122     2.77786523     3.10700480    -1.01561981    -0.45842761     0.83493289
O       0.06777025    -0.96930376     3.13114682    -1.33655814     0.39681881     0.99246624
O       5.78049198     6.63584800     1.70356799    -1.54090923     0.14911247    -1.75826678
O       5.68010901     3.12942799     1.68373998    -0.29340206    -0.36909588    -1.17932612
O       1.87381500     6.65193599     1.79097802     1.39619515    -0.11844460    -1.61885071
O       1.82386501     3.01813699     1.60086501     0.95733519    -0.94034559     0.69169206
