# total energy = -19075.01364417 eV

CRYSTAL
PRIMVEC
        5.17600016     0.00000000     0.00000000
        0.00000000     5.50899976     0.00000000
        0.00000000     0.00000000     9.26300011
PRIMCOORD
22 1
Ti      1.83137298     3.36891901     3.30919998     0.54959562     1.04620875    -0.64875950
Ti      3.48546898     2.24373101     5.88787802    -0.11967847     0.16921079     0.51703233
Ti      4.44872398     2.26578199     1.25923003    -0.76484717    -0.46886320    -2.17070787
Ti      0.73285599     3.22335002     8.16345900    -0.44318559     0.62823052     0.62572627
Ti      1.88762102     0.61162301     1.22839301     0.33903324    -0.34389083    -1.49126995
Ti      3.21748198     5.00194598     7.92366900    -0.23187194    -0.37795051     2.43053543
Ti      0.63264400     0.16869800     6.00278701     0.46458489     1.29179598    -0.11725983
Ti      4.42918998     4.92051502     3.36967500    -0.62070721     0.55632908     0.09052600
O       3.40851301     3.48438401     4.47039500     0.71193204    -0.10425364     0.43217072
O       0.99513602     2.05005500     0.24934298    -0.25898552    -0.33288419    -1.10229635
O       4.22723202     3.64708400     9.05477399     0.52728177     0.11384720    -0.43139939
O       3.66864702     0.88895999     0.19003898    -1.32954802    -0.84108915    -1.32980539
O       1.72785299     4.63394401     9.21511401    -0.32363439     1.12759808    -1.04933778
O       4.49845600     0.78915902     4.85134600    -1.84782322     0.39377694    -0.65669316
O       0.99883000     4.75347700     4.41759899     0.06214770    -1.22509126     0.61604169
O       0.13737097     3.59474001     2.33918999     0.01303447     0.10758117     1.00694310
O       5.05957698     2.03270698     6.83140799     0.52350842    -0.42813383     0.23937982
O       2.67060301     2.22812701     2.04684601     0.59321414    -0.21157847     1.25455740
O       2.33204699     3.35617500     7.13195300     0.78897981     0.73055095    -1.25736016
O       0.17616300     0.83664098     2.13764701     0.01828903    -1.09588839     1.70925099
O       2.35867397     0.76811200     6.69212902     0.05889834    -0.75287122    -0.24983753
O       2.63397399     4.84055602     2.34816499     1.28978255     0.01736498     1.58256343
