# total energy = -19070.07484408 eV

CRYSTAL
PRIMVEC
        5.93400000     0.00000000     0.00000000
        0.00000000     9.29699974     0.00000000
        0.00000000     0.00000000     4.64899994
PRIMCOORD
22 1
Ti      4.40212098     6.75713098     2.50732002    -1.56231290     1.05209992    -1.67712684
Ti      4.26405202     2.62983498     1.88622701    -1.91822828    -1.11294330     0.23446721
Ti      1.37300001     7.26897598     2.50125200     1.88354434     2.92108692     0.26044848
Ti      1.49688300     2.33698099     1.98701501     1.85188788    -1.22087542     0.99954578
Ti      3.05169202     4.49302400     4.37242302    -0.77843931     0.82779011     1.57117267
Ti      3.12048098     0.24750303     0.32385198     1.16170017    -0.87432581    -0.07398069
Ti      5.93297001     4.53933299     4.36448499    -0.07981838    -1.44760335     1.41654570
Ti      0.11138297     9.26630699     0.28574503    -1.44738352    -1.48096034     1.30562415
O       4.35780799     5.18079202     1.13861402    -0.02389121     0.09474904    -0.53934385
O       4.73310701     0.89026500     1.31586702    -0.67015495    -0.75982966    -1.73741461
O       1.13266400     0.36897201     1.90032001     0.38377663     2.65671211    -1.95770835
O       4.42819201     8.72381199     3.87728901     0.54918321    -0.04812516     1.58713589
O       4.37662998     3.80278700     3.33768200     2.04377735     0.11220967     0.76140652
O       1.53541298     8.46120598     4.00627502     0.25554718    -0.02333560     0.67682413
O       1.55171799     3.58221798     3.54860797    -2.13764990     0.73499536    -1.44932908
O       2.99581201     6.20064702     3.68830500    -0.77844471     0.36261310    -1.24893054
O       3.12725800     1.55263198     2.87933502    -1.11520201     0.68831902     0.73554044
O       0.06476500     6.09650600     3.41475402     0.42417921     0.42257150     0.07017880
O       3.11045202     8.18649398     1.80483299    -0.43897206    -2.62869890    -0.82679226
O       2.92062502     2.61317399     0.53487802    -0.64137246    -0.45684329     2.11717825
O       5.72670498     7.77953202     1.59738598     0.59076645    -1.29058448    -0.93137629
O       5.86549197     2.91582401     1.08631601     2.44750728     1.47097829    -1.29406550
