# total energy = -19932.62193059 eV

CRYSTAL
PRIMVEC
        7.09854445     0.00000000     0.00000000
        0.00002498     4.06807587     0.00000000
        0.00000000     0.00000000    10.73950444
PRIMCOORD
24 1
Ti      2.57289584     2.41073812     3.98427970     0.13376529     0.54876155     1.03842756
Ti      4.52567376     1.65733808     6.75522519    -0.13376529    -0.54876155    -1.03842756
Ti      6.12204641     1.65733952     1.38542987     0.13363159    -0.54861911    -1.03843501
Ti      0.97652319     2.41073679     9.35407513    -0.13363159     0.54861911     1.03843501
Ti      2.57288346     0.37670024     1.38547292     0.13376529     0.54876155    -1.03842756
Ti      4.52568614     3.69137607     9.35403208    -0.13376529    -0.54876155     1.03842756
Ti      0.97651081     0.37669864     6.75518215    -0.13363159     0.54861911    -1.03843501
Ti      6.12205879     3.69137762     3.98432274     0.13363159    -0.54861911     1.03843501
O       2.24674300     1.43243873     5.48028709     1.99812791     0.16832659    -0.11748223
O       4.85182659     2.63563741     5.25921780    -1.99812791    -0.16832659     0.11748223
O       1.30258843     1.43245513     0.11056920    -1.99715037     0.16765193    -0.11728966
O       5.79598122     2.63562108    10.62893535     1.99715037    -0.16765193     0.11728966
O       4.85181421     0.60159948     0.11053436    -1.99812791    -0.16832659    -0.11748223
O       2.24675538     3.46647673    10.62897019     1.99812791     0.16832659     0.11748223
O       5.79596884     0.60158309     5.48032192     1.99715037    -0.16765193    -0.11728966
O       1.30260064     3.46649312     5.25918291    -1.99715037     0.16765193     0.11728966
O       0.25792172     2.47443438     2.90100818    -1.01963099     0.42495003     0.89735210
O       6.84064787     1.59364182     7.83849671     1.01963099    -0.42495003    -0.89735210
O       3.80720270     1.59360379     2.46877838    -1.01897818    -0.42459548    -0.89834069
O       3.29136689     2.47447242     8.27072629     1.01897818     0.42459548     0.89834069
O       0.25790934     0.44039639     2.46874410    -1.01963099     0.42495003    -0.89735210
O       6.84066025     3.62767981     8.27076056     1.01963099    -0.42495003     0.89735210
O       3.29135451     0.44043443     7.83853094     1.01897818     0.42459548    -0.89834069
O       3.80721508     3.62764178     2.90097390    -1.01897818    -0.42459548     0.89834069
