# total energy = -19926.02725173 eV

CRYSTAL
PRIMVEC
        6.22834915     0.00000000     0.00000000
        0.98879890     6.55468442     0.00000000
        0.00000000     0.00000000    11.17903282
PRIMCOORD
24 1
Ti      2.84343829     3.88429985     4.14734148    -0.12076219    -1.56169044     0.74322881
Ti      4.37370968     2.67038438     7.03169159     0.12076219     1.56169044    -0.74322881
Ti      5.77438672     2.67038660     1.44213035     0.10079088     0.06802833    -0.39248907
Ti      1.44276127     3.88429789     9.73690285    -0.10079088    -0.06802833     0.39248907
Ti      2.34903898     0.60695776     1.44217518    -0.12076219    -1.56169044    -0.74322881
Ti      4.86810901     5.94772666     9.73685801     0.12076219     1.56169044     0.74322881
Ti      0.94836192     0.60695536     7.03164676    -0.10079088    -0.06802833    -0.39248907
Ti      6.26878606     5.94772907     4.14738631     0.10079088     0.06802833     0.39248907
O       2.31948471     2.30801573     5.70457493     1.67830518     1.78424033    -0.40294627
O       4.89766327     4.24666850     5.47445808    -1.67830518    -1.78424033     0.40294627
O       1.49107604     2.30804223     0.11509440    -1.02792460     0.62459395     0.55654300
O       5.72607200     4.24664206    11.06393835     1.02792460    -0.62459395    -0.55654300
O       4.40326394     0.96932622     0.11505814    -1.67830518    -1.78424033    -0.40294627
O       2.81388404     5.58535801    11.06397461     1.67830518     1.78424033     0.40294627
O       5.23167267     0.96929978     5.70461125     1.02792460    -0.62459395     0.55654300
O       1.98547524     5.58538452     5.47442182    -1.02792460     0.62459395    -0.55654300
O       0.82773386     3.98693062     3.01973571     0.45537082     0.81370303     1.12068695
O       6.38941411     2.56775355     8.15929736    -0.45537082    -0.81370303    -1.12068695
O       3.72782334     2.56769259     2.56981639     0.60923675     1.17165420     0.36468412
O       3.48932463     3.98699158     8.60921649    -0.60923675    -1.17165420    -0.36468412
O       0.33333453     0.70958834     2.56978063     0.45537082     0.81370303    -1.12068695
O       6.88381344     5.84509583     8.60925218    -0.45537082    -0.81370303     1.12068695
O       2.99492530     0.70964930     8.15933298    -0.60923675    -1.17165420     0.36468412
O       4.22222267     5.84503487     3.01970002     0.60923675     1.17165420    -0.36468412
