# total energy = -19515.99611090 eV

CRYSTAL
PRIMVEC
        5.17600016     0.00000000     0.00000000
        0.00000000     5.50899976     0.00000000
        0.00000000     0.00000000     9.26300011
PRIMCOORD
23 1
Ti      1.90590299     3.26383600     3.44738499    -0.04845040    -1.61777882     2.99994294
Ti      3.39173100     2.32375801     5.94582002    -0.08334440    -0.31390764    -3.15202324
Ti      4.28075402     2.22015500     1.43378502     0.22217991    -0.35317432    -0.66135894
Ti      0.75967998     3.46170601     7.79983702     0.67790322     0.09391678     1.21515600
Ti      2.12111398     0.23167899     1.54904199    -2.99871550     0.98242582    -3.86621117
Ti      3.21312701     5.15181898     8.03785100    -1.23010543     1.17494624    -0.05096057
Ti      0.80352099     0.54871902     5.95510899    -1.20827032     0.41749434    -3.45456994
Ti      4.43623100     4.87798298     3.22046199     2.43052874     1.05979189     3.74757348
O       1.66818699     1.97877398     4.97438701     0.25720297     0.01577167    -1.54608538
O       3.58161599     3.46381298     4.40093901     0.75375620     0.73230933    -0.06861094
O       4.79676100     2.79231198     9.05509398     0.44184064     1.41443148     1.34816898
O       3.23349499     1.02013901     0.08418803    -0.66040815    -0.73401372     1.22636473
O       1.85331002     4.55403798     9.10712402    -1.26087743    -0.91663281     0.56887375
O       4.45214802     0.69011000     4.67091402    -0.42506007    -0.27819861    -0.01115474
O       1.03874801     4.62083200     4.31233198     0.27580697     1.21118364     0.80051609
O       0.29352700     3.27608899     2.49242300    -1.04041168     0.26139387    -1.44493969
O       5.10216199     2.14531600     6.75866702     0.15318304    -1.20157465    -0.50605243
O       2.68361098     1.63479500     2.48214701     0.39403430     1.03187536     0.54733330
O       2.52831598     3.54409002     6.92141702    -0.55557806     0.57009863     1.28596523
O       0.10316898     0.74937801     1.82240199     1.48115652    -1.81899291     0.38843984
O       4.86040202     4.82591702     7.29115798     1.52526046     0.90593368    -0.99758917
O       2.55378798     0.78409601     6.72083302     0.02294968    -1.19418633     1.43512295
O       2.98160302     4.28439401     2.10491798     0.87541879    -1.44311292     0.19609837
