# total energy = -19960.82702292 eV

CRYSTAL
PRIMVEC
        5.10448606     0.00000000     0.00000000
        0.54194476     5.40561812     0.00000000
        0.00000000     0.00000000     9.14737536
PRIMCOORD
24 1
Ti      2.17128671     3.20336432     3.39361110     0.61522408    -0.45733926     0.31594139
Ti      3.47514428     2.20225384     5.75376458    -0.61522408     0.45733926    -0.31594139
Ti      4.62307862     2.20225568     1.18004020    -0.82690771    -0.45831551     0.56565859
Ti      1.02335237     3.20336275     7.96733563     0.82690771     0.45831551    -0.56565859
Ti      1.90031443     0.50055531     1.18007690     0.61522408    -0.45733926    -0.31594139
Ti      3.74611656     4.90506306     7.96729894    -0.61522408     0.45733926     0.31594139
Ti      0.75238003     0.50055332     5.75372793     0.82690771     0.45831551     0.56565859
Ti      4.89405092     4.90506500     3.39364779    -0.82690771    -0.45831551    -0.56565859
O       1.80643009     1.90341005     4.66783575    -0.12480679     0.08390644    -0.30939536
O       3.84000090     3.50220817     4.47953993     0.12480679    -0.08390644     0.30939536
O       1.12750099     1.90343191     0.09417736     0.36114603    -0.46311216     0.19812054
O       4.51893005     3.50218636     9.05319811    -0.36114603     0.46311216    -0.19812054
O       3.56902861     0.79939895     0.09414770     0.12480679    -0.08390644    -0.30939536
O       2.07740238     4.60621927     9.05322777    -0.12480679     0.08390644     0.30939536
O       4.24795777     0.79937714     4.66786546    -0.36114603     0.46311216     0.19812054
O       1.39847317     4.60624108     4.47951027     0.36114603    -0.46311216    -0.19812054
O       0.51509929     3.28800349     2.47093435    -0.28500792    -0.04374065    -0.27894191
O       5.13133164     2.11761473     6.67644132     0.28500792     0.04374065     0.27894191
O       2.95000923     2.11756438     2.10278257     0.29572968    -0.22459057    -0.28859050
O       2.69642176     3.28805378     7.04459300    -0.29572968     0.22459057     0.28859050
O       0.24412701     0.58519427     2.10275333    -0.28500792    -0.04374065     0.27894191
O       5.40230393     4.82042390     7.04462219     0.28500792     0.04374065    -0.27894191
O       2.42544947     0.58524461     6.67647051    -0.29572968     0.22459057    -0.28859050
O       3.22098152     4.82037361     2.47090516     0.29572968    -0.22459057     0.28859050
