# total energy = -39034.16911280 eV

CRYSTAL
PRIMVEC
        5.93200024     0.00000000     0.00000000
        0.00000000     9.29399984     0.00000000
        0.00000000     0.00000000     9.29399984
PRIMCOORD
46 1
Ti      4.44560702     6.96925301     7.07824600     0.85365567     0.75590718    -1.25015875
Ti      4.38950200     6.92651998     2.36854302    -0.76983100    -0.62814902    -0.13175932
Ti      4.47790302     2.41120799     6.88685201     0.67664621     0.30048751     0.67037323
Ti      4.38506602     2.49251200     2.16954502     0.19637862    -0.43126209     0.34725898
Ti      1.50164300     6.92602801     6.97057097    -0.51082671     0.65165611    -0.90159340
Ti      1.43028102     7.08762900     2.34014102     0.47894450    -0.69256263    -0.09176039
Ti      1.53443998     2.07180402     7.01358001    -0.21851325     0.31250151     0.32632968
Ti      1.50500402     2.27395000     2.44064501     0.16879221    -0.09036994    -0.46182661
Ti      2.88254501     4.39635803     4.60754600     1.21410390     2.15822233     1.19086755
Ti      3.00333702     4.86824200     9.11270101    -0.70515821    -1.03368438     2.54619552
Ti      3.13040999     9.14100898     4.64604200    -1.55603170     0.07486490    -0.70971730
Ti      2.94050299     0.09060700     0.00447001     0.49209030    -1.90244144    -0.74121049
Ti      5.83806498     4.64274602     4.70663401     0.12908691     1.53255983     0.84613262
Ti      0.02344001     4.69616800     9.26796897     0.33902862     0.01944320     1.06174799
Ti      0.02123303     9.21856599     4.86278798     2.28306666    -1.72255748    -1.03827715
Ti      5.86417300     0.00593102     0.06512198     0.46133527    -0.97273405    -1.22095847
O       4.27869102     5.41327800     5.57836701     1.31204214    -0.01758507    -0.16272801
O       4.31210899     5.46868598     1.01284700     0.35074694     0.21773807    -0.00421275
O       4.64029800     0.93402198     5.52505098    -2.09074473     0.29253328    -0.31697883
O       4.49624801     0.97797898     0.81392800    -0.42066143     1.05811784     1.03910967
O       1.34612601     5.56217398     5.67652902     0.20421740    -1.89169217    -1.59178778
O       1.63049999     5.87350700     0.84399099    -0.64676458    -1.84402133    -0.84130615
O       1.54291899     0.87206400     5.65889700     0.32247996    -0.66494769    -1.25981942
O       1.56005099     0.90736901     0.88031202    -1.41608573     1.01445792     0.71012919
O       4.44034001     8.35999802     8.39512798     0.04669202    -0.05974732    -0.64308919
O       4.54075600     8.20055501     3.88111502     0.00139919     1.37437856    -0.77516732
O       4.46386998     3.69597998     8.34082302     0.29367485     1.03778992     0.87620349
O       4.48527002     3.77300299     3.66425299    -1.37451535    -0.79451514     0.04797089
O       1.48824302     8.44389802     7.95489199     0.29746929     1.42648559     3.16035156
O       1.46084000     8.58741697     3.56598002    -0.13593427     1.09253182     1.10531843
O       1.51672000     3.83514899     8.63869700    -0.31056907    -1.53214562    -0.68149274
O       1.46748599     3.82447601     3.59255001    -0.52052954    -1.33152803    -0.02708941
O       2.98493302     6.02091102     7.82552397     0.27677473     1.20400358    -1.30051923
O       2.77582001     6.23534999     3.32503302     1.29951161    -0.92473179    -0.03996036
O       3.15573202     1.33077701     7.83895100    -0.92973696     0.41654149     0.07747559
O       3.04976301     1.41267000     3.25425398    -0.19207022     0.90815485    -0.54428294
O       5.92665899     6.16836298     8.00200898    -0.25038389    -0.61183562    -0.25650723
O       0.08941302     6.03243798     3.16870401    -1.29245213     0.21638052     0.36504896
O       0.01445998     1.40316502     7.77637600    -0.57218122    -0.28689948     1.42598499
O       3.06749103     7.73262802     5.93480599    -0.22413472     0.75268610     0.22238225
O       2.97340098     7.95452702     1.44300201     0.83094511     0.67463869    -0.57170943
O       2.86984798     3.21122202     6.21081701     0.20663012     0.64630076    -1.66770452
O       0.06248202     7.76220199     5.88387602    -0.75503043    -0.39899756     1.31517401
O       5.73940899     7.85838202     1.27204802     0.62672360     0.45745907     0.65569403
O       0.05907502     3.14800799     6.02788700     0.29117394     0.71658754    -0.42895324
O       5.81525601     3.47450998     1.52208798     1.23854508    -1.48002009    -0.32917795
