# total energy = -19904.38708667 eV

CRYSTAL
PRIMVEC
        8.03017984     0.00000000     0.00000000
        0.00002528     3.24179099     0.00000000
        0.00000000     0.00000000    12.42871626
PRIMCOORD
24 1
Ti      2.91056906     1.92108230     4.61096511    -0.16964351     0.15286937     1.85170353
Ti      5.11963629     1.32070858     7.81775127     0.16964351    -0.15286937    -1.85170353
Ti      6.92552193     1.32070969     1.60334342    -0.17036599    -0.15300512    -1.85097925
Ti      1.10468343     1.92108136    10.82537306     0.17036599     0.15300512     1.85097925
Ti      2.91055653     0.30018686     1.60339325    -0.16974609     0.15227364    -1.85143613
Ti      5.11964882     2.94160414    10.82532324     0.16974609    -0.15227364     1.85143613
Ti      1.10467090     0.30018570     7.81770144     0.17058582     0.15215357    -1.85116282
Ti      6.92553445     2.94160530     4.61101493    -0.17058582    -0.15215357     1.85116282
O       2.54161163     1.14148970     6.34227876     3.54546619     0.16045695    -0.69218468
O       5.48859378     2.10030119     6.08643762    -3.54546619    -0.16045695     0.69218468
O       1.47354322     1.14150275     0.12796060    -3.54412741     0.16047006    -0.69339053
O       6.55666224     2.10028813    12.30075543     3.54412741    -0.16047006     0.69339053
O       5.48858125     0.47940569     0.12792029    -3.54641672    -0.15978358    -0.69319487
O       2.54162410     2.76238519    12.30079575     3.54641672     0.15978358     0.69319487
O       6.55664971     0.47939263     6.34231913     3.54407599    -0.15926165    -0.69301180
O       1.47355558     2.76239831     6.08639724    -3.54407599     0.15926165     0.69301180
O       0.29177041     1.97184104     3.35730632    -0.79954807     0.19564971     0.86103243
O       7.73843494     1.26994984     9.07141006     0.79954807    -0.19564971    -0.86103243
O       4.30687090     1.26991971     2.85709134    -0.79984272    -0.19521082    -0.86231284
O       3.72333451     1.97187123     9.57162481     0.79984272     0.19521082     0.86231284
O       0.29175788     0.35094554     2.85705164    -0.79992191     0.19649406    -0.86245502
O       7.73844747     2.89084534     9.57166450     0.79992191    -0.19649406     0.86245502
O       3.72332198     0.35097568     9.07144964     0.80057343     0.19653700    -0.86042153
O       4.30688343     2.89081520     3.35726668    -0.80057343    -0.19653700     0.86042153
