# total energy = -4986.74018115 eV

CRYSTAL
PRIMVEC
        3.48096781     0.00000000     0.00000000
        0.17393223     3.47661969     0.00000000
       -1.82748093    -1.73833924     4.44387895
PRIMCOORD
6 1
Ti      0.13030855     2.60759679     1.11096962     0.00195815    -0.00200906    -0.00174038
Ti      1.69711012    -0.86931676     3.33290909    -0.00195815     0.00200906     0.00174038
O       0.04351968     0.86914924     0.72387155     0.00063661     0.00332469     1.96880472
O       1.78389885     0.86913070     3.72000722    -0.00063661    -0.00332469    -1.96880472
O      -0.04350251    -0.86913291     2.94581102     0.00333112     0.00055947     1.96602716
O       1.87092103     2.60741279     1.49806779    -0.00333112    -0.00055947    -1.96602716
