# total energy = -19071.11141976 eV

CRYSTAL
PRIMVEC
        5.17600016     0.00000000     0.00000000
        0.00000000     5.50899976     0.00000000
        0.00000000     0.00000000     9.26300011
PRIMCOORD
22 1
Ti      1.35007399     3.06166002     3.22384200     0.92969042     1.82310514     3.46422212
Ti      4.61696699     3.16967002     5.52402601     0.45218137    -1.71996401    -0.06748788
Ti      4.23582602     1.98770098     1.58242498    -0.80399068    -0.90933473     1.42063118
Ti      1.20594299     2.95277799     8.14991402     0.64821186     0.41831375    -0.55984069
Ti      1.59767100     0.46474299     1.15700901     0.61730539    -0.85269177     1.51160970
Ti      3.40419201     5.27429901     7.93923300    -0.96524108    -0.66814306     1.05701998
Ti      1.40115002     0.26473002     6.04235100     0.69935086     0.43779064    -2.06555948
Ti      3.82260400     4.93781901     3.62546102    -0.73701085     0.94989416    -0.12862745
O       3.11181999     3.17000901     4.50136097     1.00129310     1.01628032     0.82289807
O       0.63420200     2.21834199     0.68928798     0.84309332     0.06884723    -2.82403134
O       4.77479702     3.67110801     7.41719297    -0.28950735     0.66315357     0.35141208
O       3.51269801     0.53107901     0.66067198    -0.53114383     0.49137065    -2.46677977
O       2.02756200     4.39808097     9.10929301    -0.84903849     0.21503918     1.35974872
O       2.90037701     0.31300400     4.95486699     0.90116659     0.33411369     0.00493703
O       0.46658601     4.59145398     4.79477801    -1.56348713     0.40616529     0.76681509
O       4.80700301     3.40235301     2.81380700    -1.42036687     0.48029048    -2.21538903
O       0.84034199     2.06406698     4.76781400    -1.60836909    -0.72454794     2.00766696
O       2.25395900     1.80426502     2.54711098     3.33919961    -2.57586606    -2.99207279
O       2.21306498     4.18636901     6.85468602    -0.04829819    -0.13925254    -0.50539268
O       5.11339500     0.72742102     2.51990402    -0.60206619    -1.22080626     0.65912465
O       2.30729600     1.24783398     7.43020603    -0.23211182     1.04785040     1.35278129
O       2.20664199     4.65473199     2.61587200     0.21913880     0.45839213    -0.95368654
