# total energy = -19960.91551942 eV

CRYSTAL
PRIMVEC
        7.60600008     0.00000000     0.00000000
        0.00000000     7.60600008     0.00000000
       -1.89786986    -1.89786986     4.85670466
PRIMCOORD
24 1
Ti      3.80515099     6.66290700     1.15165300    -0.63914229     0.79980878     0.66033487
Ti      3.80022901     2.93697200     1.21862202    -0.54306064    -0.79986715     0.39216228
Ti      0.01358001     6.67083900     1.18688001     0.61618901    -0.15926010     0.75004044
Ti     -0.05736398     2.77688498     1.24557402     0.26782009     0.44724819    -1.03844118
Ti      5.78562024     2.77374225     3.76920879    -2.03762315    -0.18325750    -0.30762592
Ti      5.76561220    -1.03444278     3.62276883    -1.22831979     0.46973378    -1.09141776
Ti      1.78779523     2.79390824     3.58551179     2.46592333     0.64515044     0.49751559
Ti      1.89081424    -0.92004080     3.70634979     1.18054508    -0.24338252    -0.65431052
O       3.79558902     4.82099298     0.72650702     0.05301231    -0.61906582    -0.55692712
O       3.65996401     1.02705901     0.84567202     0.68363499    -0.00785267    -0.46918382
O       0.07842798     4.78717802     0.92708700    -0.68257055    -0.80080483    -1.37511673
O      -0.07394098     0.96013698     0.68156500     0.32249128    -0.14034218     1.18693376
O       5.86908721     4.69228421     4.02736379     0.04428753    -0.04345937     0.14276236
O       5.76477923     0.87566722     4.00594280    -0.46781008     1.46996990     0.88065047
O       1.75141821     4.83993620     4.06602384     0.10079731    -1.22866715    -0.07397504
O       1.90275623     0.94483820     4.00543780     0.19662133     1.39926068     0.31101875
O       3.68553222     2.79907121     3.14586482     1.03067619     0.27230641     0.58862780
O       3.88195424    -1.05902677     3.35006379    -0.22688323     0.11230274    -0.75747915
O      -0.06625379     2.62163723     3.29664584     0.87707278     0.35306170    -1.33555386
O       0.11754122    -0.79588475     3.14285079    -2.15557718    -0.43536352    -0.11693999
O       5.66748798     6.65644802     1.55703902     1.14969877     0.09381985     0.44458941
O       5.69154501     2.91790299     1.59694899     0.85846467     0.00878958     0.57592578
O       1.94131902     6.78110202     1.62925701    -0.00753205    -0.42541977     0.04032905
O       1.91054303     3.09934300     1.48564301    -1.85871570    -0.98470948     1.30608052
