# total energy = -4984.72495482 eV

CRYSTAL
PRIMVEC
        2.93714440     0.00000000     0.00000000
        0.00000000     3.76532590     0.00000000
        0.00000000    -0.00005529     4.22595507
PRIMCOORD
6 1
Ti      1.46857220     1.88263526     2.11297763     0.00000000     0.00000000     0.00000000
Ti      0.00000000     0.00000000     0.00000000     0.00000000     0.00000000     0.00000000
O       1.46857220     0.73379577     0.82357645     0.00000000    -0.30257293    -0.58601376
O       1.46857220     3.03147474     3.40237880     0.00000000     0.30257293     0.58601376
O       0.00000000     1.14881711     2.93655484     0.00000000     0.29956448    -0.58232114
O       0.00000000     2.61645340     1.28940042     0.00000000    -0.29956448     0.58232114
