# total energy = -19517.72277072 eV

CRYSTAL
PRIMVEC
        5.93400000     0.00000000     0.00000000
        0.00000000     9.29699974     0.00000000
        0.00000000     0.00000000     4.64899994
PRIMCOORD
23 1
Ti      4.50472300     7.05565601     2.36757902     0.45329491     0.97882525    -0.44475062
Ti      4.43516497     2.36082497     2.29280702    -0.61317902    -1.33435933    -0.39723121
Ti      1.43108600     6.98620202     2.22584498    -0.45637175     0.49287192    -0.57357348
Ti      1.44846799     2.27642099     2.41169198     0.60243900    -0.02157156     0.01822167
Ti      3.05871901     4.51483002     0.11296998    -2.35327966     0.13388690     1.26855834
Ti      2.99536602     0.05419299     0.06335601     0.14698231     0.14013700    -0.32424477
Ti      5.89090799     4.55273900     4.53914502     1.63209293     0.65124293     0.69713148
Ti      0.05967198     0.08897602     4.56161098    -0.28589238    -0.61487698     0.80367444
O       4.40969800     5.53038598     0.88725297    -0.17682409     0.54426546     0.04854656
O       4.53476502     0.90680300     0.89844301    -0.07341402     0.07938104     0.23956828
O       1.36601900     5.42955300     0.85091702     1.17427416     1.47081708     0.96646338
O       1.44096801     1.07291899     0.95373002    -0.12789315    -1.70447465    -1.15266428
O       4.39909699     8.44682199     3.69563098     0.64981854    -0.89702583     0.38928959
O       4.35382699     3.75719001     3.67537101     0.10239448     0.04154441    -0.11902129
O       1.68633200     8.41365998     3.70535599    -1.50614816    -0.59018898     0.40313396
O       1.50690800     3.67227098     3.75352800    -0.43257490     0.23543189    -0.51729535
O       3.01417599     1.36458101     3.30236698    -0.69427936     0.94418682    -0.54467247
O       5.91264500     6.09431499     3.26548799     0.10989439    -0.12250360    -0.28462225
O       5.87214299     1.36049100     3.23205499     0.27227993     0.70104008    -0.33011460
O       2.97320699     7.86228502     1.48053798    -0.22050175    -0.69763825     0.06132829
O       2.90935201     3.09359402     1.33775099     0.43473437     0.72420444     0.38107774
O       0.00866798     7.99942898     1.47377801     0.24008662    -1.10151731    -0.05947067
O       5.77468997     3.31044599     1.48644000     1.12206635    -0.05367848    -0.52933352
