# total energy = -19070.77162290 eV

CRYSTAL
PRIMVEC
        5.17600016     0.00000000     0.00000000
        0.00000000     5.50899976     0.00000000
        0.00000000     0.00000000     9.26300011
PRIMCOORD
22 1
Ti      1.98307000     3.51891499     3.23470601     1.08148969     0.99934163     2.79851570
Ti      3.66459500     2.48762902     6.01472298    -1.74782501    -2.01220033    -0.75000907
Ti      4.48720098     2.32891500     1.54940199    -0.50836539    -2.22058086    -0.62270548
Ti      0.93449802     2.28382900     7.91940600     0.37304767     2.84254663    -4.87223356
Ti      1.87129998     0.55459199     1.41545902     0.23889851     1.19883823    -1.59555214
Ti      3.05783000     0.01816501     7.89403602     1.04396880    -1.56730419     1.60340095
Ti      0.35581598     5.39376898     6.00488102     0.84880246    -0.19798556     2.65503549
Ti      4.52140197     4.99472700     3.46585698    -0.37335054    -0.05027126     0.37673180
O       3.49085198     3.04705801     4.29433101     0.92757003     2.15527045     1.69139107
O       0.72086599     2.05246900     0.28690001     0.81371563     0.12919670     2.53798238
O       4.55726897     3.68684601     6.94862599     2.18063799     2.58712826     0.94280974
O       3.50688399     1.13141001     0.17535701    -0.92156830     0.50064128     1.00801859
O       1.80247201     4.98309097     0.04842898    -0.52821971    -0.57117438     0.22274915
O       4.32278699     0.79811899     4.82026102    -0.62029867    -0.19781458     1.20165822
O       0.94070099     4.84291700     4.36035497     2.79014316    -1.25545471     1.57418266
O       0.45405900     3.60759499     2.41519900    -3.97789890    -0.59313906    -2.23093958
O       4.64635401     1.23778999     7.34381001     0.53340949    -1.44885574    -0.73050339
O       2.73844999     2.26248098     2.25585499    -0.30318974    -2.30754743    -2.15173158
O       1.98965201     4.12624199     7.12320199    -0.50662630    -1.70884604    -1.22362830
O       0.02582898     0.66615102     2.19588201     0.67155337     1.05197033     0.14671106
O       2.18579500     1.15140699     6.82388002    -1.71289887     2.13687625    -1.74071590
O       2.88175002     4.98079599     2.56119900    -0.30299562     0.52936463    -0.84116756
