# total energy = -4988.88544258 eV

CRYSTAL
PRIMVEC
        3.34359765     0.00000000     0.00000000
        0.00000000     3.87224274     0.00000000
        0.00000000    -0.00006109     4.66043931
PRIMCOORD
6 1
Ti      1.67179888     1.93609067     2.33021965     0.00000000     0.00000000     0.00000000
Ti      0.00000000     0.00000000     0.00000000     0.00000000     0.00000000     0.00000000
O       1.67179888     0.75463111     0.90825096     0.00000000    -0.25599018    -0.31073104
O       1.67179888     3.11755017     3.75218829     0.00000000     0.25599018     0.31073104
O       0.00000000     1.18143487     3.23847165     0.00000000     0.25567754    -0.31074673
O       0.00000000     2.69074646     1.42196766     0.00000000    -0.25567754     0.31074673
