# total energy = -19075.30917639 eV

CRYSTAL
PRIMVEC
        7.60600008     0.00000000     0.00000000
        0.00000000     7.60600008     0.00000000
       -1.89786986    -1.89786986     4.85670466
PRIMCOORD
22 1
Ti      4.00460001     6.60002498     1.14542601    -0.10949098    -0.33410007    -0.09466265
Ti      3.60953099     2.74850700     1.17826199     1.29354356     0.31031555    -0.29918447
Ti      0.19932900     6.72172902     1.08058799    -0.86985337     1.09015869     0.78689644
Ti     -0.11890401     2.94478302     1.17776202    -1.55120291    -0.98580554     0.10312082
Ti      5.62586723     2.80721424     3.62873181    -0.65595088    -0.15626040    -1.02041543
Ti     -1.37323179    -0.86216775     3.66923779    -0.30379138    -0.18807858     1.90536401
Ti      1.78817523     2.87481224     3.67361679     0.50959386    -1.95420753     0.10129867
Ti      1.48652224    -1.11856979     3.71055780     1.31764484     1.75044213    -0.40586498
O       3.77602100     4.68328100     0.87789701    -0.54887416     0.58847919    -0.67809914
O       4.03559900     0.80986900     0.66607900    -1.23452104     0.75046672     1.34453884
O      -0.26854999     4.89615102     0.72119001     0.25107192    -1.03032035    -0.37753270
O      -0.25202702     0.95851399     0.83330399     0.92383653     1.03207539     0.16597711
O      -1.42264779     4.94742221     4.13258280    -0.16158798    -1.11165235    -1.63840370
O       5.58907523     0.90614921     3.94318582     0.61233930     1.76384581     1.11379510
O       2.30670522     4.64640920     4.07317979    -1.13263384     0.83464596     0.15143700
O       1.85308025     0.85785220     3.97795080    -1.07968735    -0.38877768     0.57795155
O       3.68228021     2.67821321     3.18590084     0.10370677     0.21412027    -0.05059419
O      -0.09862779     3.07486622     3.22390979    -0.20554152    -0.86860073     0.02867141
O       5.72182601     6.75614602     1.94383701    -0.14801744    -0.86130702    -1.27440426
O       5.48477498     2.95739501     1.61136902     1.59023098    -0.32001350     0.57980892
O       1.96871701     6.61686599     1.84896399     0.41197958    -0.01842556    -0.12283501
O       1.69043498     2.92161802     1.68721202     0.98720525    -0.11700041    -0.89686334
