# total energy = -19069.14624090 eV

CRYSTAL
PRIMVEC
        5.17600016     0.00000000     0.00000000
        0.00000000     5.50899976     0.00000000
        0.00000000     0.00000000     9.26300011
PRIMCOORD
22 1
Ti      1.83513802     3.26755702     3.29762000    -0.51356571     1.29159878     1.06146054
Ti      3.65790202     2.11792902     5.99912802     0.00662034     0.68452793     1.06375987
Ti      4.38080402     2.35853300     1.56366898     0.14660718    -0.40727703    -1.04733643
Ti      1.12207501     3.11307901     8.03387302     1.68148666     1.40401311    -2.85210960
Ti      1.66036702     0.52786399     1.15195701     0.88070960     0.18147881    -0.33635107
Ti      3.25544399     5.43893802     7.82100999     0.52410080    -1.40617335     0.79205665
Ti      0.70983000     0.05210300     6.19940002     3.00801261    -6.21978033    -4.53440307
Ti      4.25660200     5.06989398     3.47048400     3.36417866     0.85759383     2.26308764
O       3.16875798     2.55112902     4.33313299     0.60545748     0.05883997    -0.31221611
O       0.39248600     2.22115700     0.08191902    -0.30019903    -1.00735782     2.43790627
O       5.14676301     4.03350902     6.92522900    -2.40180231    -0.99129819     1.43534793
O       3.38935399     0.72951598     0.40799000     1.17894457    -0.87319684    -2.31704098
O       1.64315003     4.82375999     8.95504498    -0.57639141    -1.11657910    -0.16205284
O       3.85339999     0.19249701     5.35518497     1.34747144     0.38703473    -0.47857504
O       1.21217400     4.72970699     4.58558498    -1.65757720    -0.25063791    -0.63795367
O       0.15701700     3.80264502     2.48454799    -1.38359597    -1.14984378    -1.09797664
O       0.18933602     1.29992799     7.08938598    -6.56620447     6.28504421     3.19001078
O       2.54909899     2.28035098     1.74236198    -1.61198663     1.15289748     1.24067472
O       2.43713302     3.77893100     6.67383901     1.37221035     0.11006382     1.84998474
O       0.00625800     0.89065601     2.26105702     0.12700612    -0.69534842     2.05211929
O       2.25491502     1.29298503     7.12041598     2.02463933     0.34721578    -0.53711959
O       2.68055001     4.85450101     2.78489498    -1.25612294     1.35718405    -3.07327314
