# total energy = -39482.88500945 eV

CRYSTAL
PRIMVEC
        7.60629642    -0.00000847    -0.00005503
       -0.00000847     7.60629642    -0.00005503
       -3.80314186    -3.80314186     9.70738094
PRIMCOORD
47 1
Ti      1.90154671     4.67080161     6.11345661    -0.00000411     0.02504384    -0.01568399
Ti      3.83456966     6.65568656     1.16976613     0.00203040    -0.00004371    -0.00722814
Ti      1.90146553     1.03382760     6.11355243    -0.00002725    -0.02515671    -0.01577501
Ti      3.78548968     2.85248907     1.23946024     0.01861839    -0.00001054    -0.00263718
Ti     -1.90164115     4.77073576     6.06208786     0.00000720    -0.01027336    -0.03779112
Ti     -0.03155293     6.65566850     1.16976418    -0.00214970    -0.00000951    -0.00729268
Ti     -1.90170537     0.93433491     6.06211436    -0.00007970     0.01016332    -0.03767799
Ti      0.01729373     2.85252021     1.23957518    -0.01846464    -0.00002494    -0.00258730
Ti      3.80850574     0.93476827     8.50260362     0.01162833    -0.00240758     0.01313243
Ti      5.70507690     2.85220796     3.64574033     0.00004268    -0.00014064     0.02195851
Ti      3.80857344    -2.83649409     8.50260093     0.01181808     0.00244332     0.01325507
Ti      5.70472043    -0.95097232     3.62214390     0.00000000    -0.00001928     0.03320118
Ti     -0.00519032     0.93478557     8.50263352    -0.01145273    -0.00235796     0.01314606
Ti      1.90195590     2.85212065     3.71473596    -0.00008922     0.00034016     0.01727679
Ti     -0.00507035    -2.83654121     8.50258598    -0.01151700     0.00240835     0.01320699
Ti      1.90152214    -0.95092844     3.47308986    -0.00009565     0.00026894     0.00918578
O       1.90169953     2.85229077     5.69772165     0.00021032     0.00046383     0.00863685
O       3.80047181     4.74845187     0.78662236    -0.00495169    -0.00320462     0.00026045
O       3.80053545     0.95631397     0.78664576    -0.00497611     0.00315809     0.00027177
O      -1.90153866     2.85238064     5.68302428     0.00006145    -0.00006479    -0.02607537
O       0.00270395     4.74843406     0.78667879     0.00491158    -0.00312929     0.00021623
O      -1.90158200    -0.95076537     5.61349296     0.00003137     0.00004088     0.02051767
O       0.00269047     0.95634373     0.78669530     0.00498023     0.00311181     0.00020877
O       3.78095329     2.85238331     8.87851914    -0.00817200     0.00002468     0.00618556
O       5.70467662     4.75162907     4.06246481    -0.00001440     0.00166582    -0.01733490
O       3.83922320    -0.95078536     8.93693783     0.01089017    -0.00005014     0.00408420
O       5.70466019     0.95310582     4.06251132    -0.00003471    -0.00187691    -0.01742617
O       0.02222858     2.85239085     8.87849066     0.00823602     0.00001825     0.00620202
O       1.90128074     4.86621529     4.12748147    -0.00020312     0.00253151     0.00162802
O      -0.03609607    -0.95079227     8.93695677    -0.01073179    -0.00008665     0.00418010
O       1.90128361     0.83845895     4.12737714    -0.00022291    -0.00263615     0.00198361
O       1.90158727     0.91530530     8.09352190    -0.00001208    -0.02600029     0.00287552
O       3.78324717     2.85239797     3.26839163    -0.00021340    -0.00008202     0.00879009
O       1.90163096    -2.81696822     8.09353750    -0.00000051     0.02617564     0.00275391
O       3.82173419    -0.95073144     3.17082907    -0.00505479    -0.00011544    -0.00203580
O      -1.90156287     0.98158111     8.05186393     0.00001234     0.00146656    -0.02579717
O       0.01981224     2.85240115     3.26833517     0.00029233    -0.00006685     0.00874535
O      -1.90152509    -2.88306899     8.05183460     0.00002494    -0.00147633    -0.02564574
O      -0.01866649    -0.95072324     3.17087932     0.00487790    -0.00010284    -0.00210651
O       3.78016819     4.88418906     6.46919999    -0.00638662     0.00520931    -0.00247006
O       5.70469307     6.65544559     1.58287902     0.00003342     0.00001106     0.03167883
O       3.78015097     0.82050674     6.46925072    -0.00617322    -0.00513758    -0.00251274
O       5.70469788     2.85235736     1.66920127    -0.00004242    -0.00006608     0.03240517
O       0.02303917     4.88421123     6.46922453     0.00633160     0.00522423    -0.00238136
O       1.90154392     6.65549817     1.56527990     0.00000874    -0.00004834     0.00353604
O       0.02298822     0.82048402     6.46926927     0.00609146    -0.00512010    -0.00240141
O       1.90159049     2.85233887     1.67918612    -0.00007045    -0.00006145    -0.02666235
