# total energy = -39030.62234011 eV

CRYSTAL
PRIMVEC
        5.93200024     0.00000000     0.00000000
        0.00000000     9.29399984     0.00000000
        0.00000000     0.00000000     9.29399984
PRIMCOORD
46 1
Ti      4.48581401     6.98106900     6.80809498    -0.85249122    -0.10076131     1.61038869
Ti      4.49119802     6.81577298     2.25462302    -0.99990162     1.44801807    -0.18746743
Ti      4.52978102     2.37641501     6.98025899    -2.19097948    -1.50772245     0.51680170
Ti      4.29320201     2.77253202     2.03904203     0.20082380    -3.40854306     1.90916745
Ti      1.43475902     6.98653001     7.12448599    -0.58144440    -0.66500708    -0.63477167
Ti      1.47263800     7.01153300     2.06468199     1.85217712     0.31935273    -0.82627573
Ti      1.43117300     2.20464201     6.98956002     1.55129624     0.35379884     1.19559812
Ti      1.27699498     1.94273198     2.90157702     2.37668545     0.53719312    -0.76731748
Ti      3.12323302     4.80887302     4.81134502    -2.57747968    -1.56088003     0.16528831
Ti      3.02887199     4.88775303     8.85892401    -2.12339544    -3.11260667     1.70575403
Ti      2.86709901     9.29145000     4.71561098     1.76916646     0.78009330    -1.58917297
Ti      2.86513200     0.05111799     0.08939899     0.25869035     1.64789005     0.52714114
Ti      0.06033700     4.60844999     4.43346002     1.90126619     0.28860824     0.87847711
Ti      0.02187899     4.59280000     9.28451698     1.45273527     0.02969085    -1.08515506
Ti      5.78451902     8.99158398     4.83186900    -0.90663533     1.95548974    -2.12647640
Ti      5.71418200     9.27197998     0.07253702     0.17661223     1.20223440    -0.58543167
O       4.59047897     5.66933401     5.40386399     0.62767156     0.28520384    -0.38035989
O       4.30784498     5.63422802     0.58984001     2.36043813     0.13504159     2.60598089
O       4.63072798     0.81728002     5.73095998    -0.91921883     0.59592743    -0.26876651
O       4.50895297     0.88909901     1.14627899     0.19031621     1.59797386    -0.70377162
O       1.26038802     5.68344003     5.58117001     1.06047786    -1.05632964    -1.35035545
O       1.60439203     5.66339299     0.59192100    -0.73833291     0.19902763     0.99674559
O       1.48627098     0.91831102     5.49879701    -0.98403816     1.15654202     0.25650697
O       1.86405502     1.09694099     1.23069203    -1.18882429    -0.08812022     0.20489154
O       4.62785699     8.37299001     8.28721498    -1.77700832     0.36856160    -0.04727489
O       4.37156501     8.31704899     3.75253997     1.26419338    -0.41668907    -0.19650563
O       4.38158800     3.61242199     8.55378501     1.42344037    -0.81804768     1.36670382
O       4.35746101     3.67614398     3.81640098     0.50867649     1.28882584    -0.81720976
O       1.37831602     8.57322502     8.65379099     1.52468505    -2.18771907    -2.34135257
O       1.36971202     8.49698302     3.84556902     0.79676640    -0.59719010    -2.48627902
O       1.54787002     3.78305101     8.20716602    -1.19347465     0.08782737     1.79193281
O       1.57078398     3.51908999     4.05702698    -0.53736025     0.21227858    -0.44680930
O       2.90515098     5.84494799     7.47028300     0.98493008     2.82502944    -1.98352686
O       2.97037001     6.07209198     2.95152400    -0.17788672    -1.00642502     1.56009790
O       2.89129098     1.40392000     7.88291600     0.78942538    -0.36949209     0.11775143
O       3.25633899     1.49504501     3.36714399    -1.54318312     0.13163539    -0.12381666
O       5.85229699     6.03199903     7.86537002     0.50047441    -0.18265638     0.40432669
O       0.29853498     5.91829497     2.93607102    -1.92774085    -0.57991665     0.90704697
O       0.16393102     1.45759900     8.00634098    -1.00613809    -0.40209009     0.49378954
O       3.05127201     7.84952100     5.96503101    -1.19578119     0.17888174     0.91225165
O       3.19368498     7.88188299     1.27879598    -1.10575218    -0.38447751     0.59916265
O       3.27835800     3.58148798     6.26322599    -0.90359680    -0.89682683    -1.09016151
O       0.03714898     7.79191201     6.08783199     1.12834164    -0.02602986     0.88911660
O       5.86833302     7.81151300     1.20490702     0.72416562    -0.95975897     2.23302938
O       5.90417102     3.17588002     6.31305300     0.95943501     2.26187537    -2.88766282
O       0.19808099     3.18820599     1.81117301    -0.95222744     0.44028924    -0.92203007
