# total energy = -19938.54154844 eV

CRYSTAL
PRIMVEC
        6.89410245     0.00000000     0.00000000
        0.00002713     4.89160646     0.00000000
        0.00000000     0.00000000    10.71087458
PRIMCOORD
24 1
Ti      2.49879674     2.89876144     3.97365807     0.48650998    -0.06013838     0.68103329
Ti      4.39533296     1.99284502     6.73721662    -0.48650998     0.06013838    -0.68103329
Ti      5.94572912     1.99284673     1.38173645     0.48705377     0.06026308    -0.68131739
Ti      0.94840058     2.89875997     9.32913830    -0.48705377    -0.06026308     0.68131739
Ti      2.49878317     0.45295833     1.38177939     0.48649841    -0.05911354    -0.68134336
Ti      4.39534653     4.43864831     9.32909536    -0.48649841     0.05911354     0.68134336
Ti      0.94838701     0.45295651     6.73717363    -0.48657785    -0.05922693    -0.68084688
Ti      5.94574269     4.43865013     3.97370101     0.48657785     0.05922693     0.68084688
O       2.18203656     1.72241781     5.46567733     0.97152100     0.85022994    -0.77284484
O       4.71209314     3.16918871     5.24519737    -0.97152100    -0.85022994     0.77284484
O       1.26507422     1.72243753     0.11027446    -0.97039383     0.84899915    -0.77226172
O       5.62905560     3.16916899    10.60059988     0.97039383    -0.84899915     0.77226172
O       4.71207963     0.72338542     0.11023969    -0.97156702    -0.84951440    -0.77233936
O       2.18205007     4.16822104    10.60063465     0.97156702     0.84951440     0.77233936
O       5.62904203     0.72336576     5.46571204     0.97086305    -0.84949486    -0.77292609
O       1.26508761     4.16824082     5.24516259    -0.97086305     0.84949486     0.77292609
O       0.25049533     2.97535234     2.89327446    -1.47739808     0.41143065     0.49520905
O       6.64363438     1.91625418     7.81760024     1.47739808    -0.41143065    -0.49520905
O       3.69755426     1.91620857     2.46219696    -1.47553917    -0.41100925    -0.49424592
O       3.19657544     2.97539795     8.24867756     1.47553917     0.41100925     0.49424592
O       0.25048176     0.52954905     2.46216272    -1.47617552     0.41145456    -0.49418704
O       6.64364794     4.36205741     8.24871174     1.47617552    -0.41145456     0.49418704
O       3.19656193     0.52959466     7.81763437     1.47567929     0.41082464    -0.49492829
O       3.69756777     4.36201186     2.89324027    -1.47567929    -0.41082464     0.49492829
