# total energy = -19516.76522237 eV

CRYSTAL
PRIMVEC
        5.17600016     0.00000000     0.00000000
        0.00000000     5.50899976     0.00000000
        0.00000000     0.00000000     9.26300011
PRIMCOORD
23 1
Ti      1.94613797     3.22262098     3.38445698    -1.41104791    -0.09682495     2.19056014
Ti      3.32456301     2.27946699     5.84829398     0.63250601     0.55198803    -2.20883015
Ti      4.32790001     2.14303901     1.55708400     1.50877763    -1.19021295     0.03114173
Ti      0.85671998     3.27025302     7.80872799    -0.56623940     1.68557061    -0.07158622
Ti      1.91555597     0.21574800     1.26202900     0.67446823    -0.79816816    -0.07417430
Ti      3.28492498     5.28923203     7.84554502     0.35136683    -1.75922091     1.92535795
Ti      0.78000600     0.58471599     5.92733999    -1.24811627    -1.00892645    -2.96720430
Ti      4.47213700     4.90511501     3.43572399     1.18175736     0.70150005     2.67241693
O       1.71113300     1.93887502     4.66331498    -0.15728549    -1.31679354     1.51303589
O       3.59918002     3.45822799     4.44374701     0.02464300     0.62351409    -0.32954253
O       5.06359799     2.60122501     9.23138700     0.16121620     0.14875997    -0.21911541
O       3.74195098     0.39206700     0.30277400    -1.43830958     0.86050458    -0.38067459
O       1.70124898     4.55941198     9.04346198    -0.00596959     0.85836517     0.39253689
O       4.24081902     0.67193102     5.01425200    -0.70555879    -0.01798822    -1.09078964
O       0.93322699     4.67583902     4.47427398     0.60756964     0.74333602     1.01884654
O       0.20666203     3.51267102     2.55367902    -0.18806290    -1.73757787    -1.84111623
O       5.13225900     2.32834101     6.44362399     0.13844084    -0.29625444     1.27868052
O       2.57104498     1.80357900     2.27193600     0.49374558     0.28181949    -1.79030762
O       2.52231902     3.74482600     6.90120499     0.12557915    -0.58207020     0.06696055
O       0.18978201     0.64297698     2.22873699     0.05702272     1.08468223    -0.74507563
O       4.94127602     4.80866902     7.09089397     1.09022836     0.23504520     1.12508816
O       2.36395199     1.12832401     7.08888601    -1.36068872     0.37071156     0.49543711
O       2.82470001     4.60414000     2.40444098     0.03395683     0.65824071    -0.99164606
