# total energy = -19961.04272249 eV

CRYSTAL
PRIMVEC
        7.60600008     0.00000000     0.00000000
        0.00000000     7.60600008     0.00000000
       -1.89786986    -1.89786986     4.85670466
PRIMCOORD
24 1
Ti      3.75273699     6.61720202     1.25232500     0.30654606    -1.97874718     0.01294808
Ti      3.74008600     2.74944200     1.19851202     0.43584380     1.74240615     0.63121557
Ti      0.05592901     6.72177300     1.27391200     0.09691700     0.10036228    -0.37123735
Ti      0.01800901     2.94259900     1.11535700    -0.67858534    -0.18126747     0.51067578
Ti      5.70781721     3.03172124     3.62492084     0.10672859    -0.23061030    -0.93164986
Ti      5.72799522    -0.87035079     3.61848583    -0.66647595    -0.20484835    -0.28826319
Ti      1.79613824     2.74538422     3.64562082     0.65831244     0.45236726     0.49036895
Ti      1.86582723    -1.07640479     3.74432180     0.92784488    -0.28188763    -1.35048246
O       3.70264697     4.67580103     0.70082102    -0.08213881    -0.25004039     0.89433825
O       3.74260203     0.83705099     0.82850599     0.10992267     1.41893811     0.50015483
O       0.16779200     4.78998901     0.81019699    -0.57659298     0.76344592    -1.03374635
O       0.16421503     1.00208401     0.80844398    -0.91775767    -0.32904425    -0.64574514
O       6.00418023     4.89519522     4.00533779    -0.93828999    -1.49644507     0.85764731
O       5.75437724     1.03178324     3.87318482    -0.50390401    -0.30692787     1.17980152
O       1.72132824     4.70911522     4.11628382     0.28414274    -0.00173370    -0.24842702
O       1.99080223     0.89912824     4.06971183    -0.15778300    -0.94629667    -0.02820424
O       3.77913023     2.86031522     3.13688982     0.59698466     0.27979243     0.51534542
O       3.76940422     6.32551920     3.21659682     1.05652607     1.06132324     0.63044476
O       0.00417822     2.91014324     3.19671680    -1.14066108    -0.38842647    -0.20361319
O       0.02419425    -0.84606176     3.25225379    -0.31917841     0.22318932    -0.89126244
O       5.67646298     6.56611498     1.52259398     1.18667305     0.48859926     0.88329511
O       5.71919002     3.05694997     1.57827401    -0.12730436    -0.72157163     0.28945079
O       1.93855402     6.48924399     1.71783202    -1.35128285     0.66352818    -0.11688342
O       1.79835501     2.77216302     1.69549502     1.69351198     0.12389508    -1.28617169
