# total energy = -19074.08251360 eV

CRYSTAL
PRIMVEC
        7.60600008     0.00000000     0.00000000
        0.00000000     7.60600008     0.00000000
       -1.89786986    -1.89786986     4.85670466
PRIMCOORD
22 1
Ti      3.87369299     6.59094302     1.21787900    -0.86770213    -0.00201472    -0.74140024
Ti      3.80905198     2.86420600     1.11301100     1.08625318    -0.71344128     0.42552210
Ti      0.28105699     6.78072599     1.02360301     0.39475627    -0.96950783     0.08375140
Ti     -0.04392002     2.80358001     1.25916901    -2.86920230     0.15740377    -0.84837283
Ti      5.59151622     2.81394924     3.63428579     1.37669076     0.33397357     0.85529527
Ti      6.09128122    -0.67941078     3.53084080     0.00282333    -1.75126232     3.49423025
Ti      1.84384420     2.76028924     3.50372782    -0.59044480    -0.13939010     1.54187185
Ti      1.47427025    -1.10875779     3.88949581    -0.31851429    -0.40955375    -1.38764597
O       3.95834198     4.62114300     0.70418998    -0.78725820     1.23393277    -0.51369298
O       4.15203102     0.89030400     0.76875701    -0.83315343    -0.30789229     1.53771438
O       0.01084099     4.91511302     0.70403498    -0.03153228    -0.59692219     0.00177766
O      -0.17111401     0.95801202     0.89276801     0.52714294     1.09360397     0.62584634
O       5.87508125     5.02350821     4.01978883     0.09330768    -0.43111760    -0.76729254
O       5.17388022     0.87232822     4.10808681     1.48812189     1.08264721    -0.26203176
O       2.01001623     4.68642024     4.17419582    -0.33903967    -1.46924331    -0.83699415
O       1.54617422     0.65621921     4.01128579     0.67255687     3.76638188     0.35480234
O       3.88485921     2.91595620     3.08401379    -3.34527899    -0.18844393    -0.07077787
O      -0.12855880     2.56829225     3.40287484     1.31547791     0.72394861    -1.30198553
O       5.58822802     6.56112701     1.92496199     0.22722647    -0.05997872    -2.26282822
O       5.72577198     3.11905300     1.58274502    -0.08694291    -0.80561537     0.75606479
O       2.01815799     6.66789498     2.05211101     0.68078518    -0.43118033    -1.30783633
O       1.75099201     2.92869302     1.57250597     2.20392576    -0.11632755     0.62398177
