# total energy = -39040.58335492 eV

CRYSTAL
PRIMVEC
        7.60629642    -0.00000847    -0.00005503
       -0.00000847     7.60629642    -0.00005503
       -3.80314186    -3.80314186     9.70738094
PRIMCOORD
46 1
Ti      1.90145342     4.75412022     6.14594740    -0.00003162    -0.00067671    -0.00061449
Ti      3.77337094     6.65562475     1.22929222    -0.00341186     0.00018975    -0.01778510
Ti      1.90144858     0.95097201     6.14596139     0.00007379    -0.00067646    -0.00047797
Ti      3.77337513     2.85247274     1.22931976    -0.00341186     0.00013498    -0.01778536
Ti     -1.90168153     4.75379403     5.89663638    -0.00011030    -0.00001825    -0.03010043
Ti      0.02958691     6.65569631     1.22922577     0.00352190     0.00027279    -0.01760769
Ti     -1.90167956     0.95064576     5.89667186    -0.00017406    -0.00001800    -0.03023696
Ti      0.02959107     2.85254088     1.22925336     0.00352190     0.00026431    -0.01760821
Ti      3.75052848     0.95078623     8.52713204     0.02089793    -0.00002263     0.01794476
Ti      5.70487501     2.85238209     3.56224865    -0.00030288    -0.00010104    -0.01154760
Ti      3.75054357    -2.85236197     8.52715190     0.02086708    -0.00002263     0.01802935
Ti      5.70487934    -0.95076451     3.56227609    -0.00030313    -0.00005039    -0.01154734
Ti      0.05270220     0.95079294     8.52718884    -0.02005641     0.00001517     0.01797330
Ti      1.90168501     2.85223471     3.68476195    -0.00034453     0.00008048     0.04251398
Ti      0.05271055    -2.85235530     8.52720440    -0.02009575     0.00001543     0.01813220
Ti      1.90168930    -0.95091937     3.68478946    -0.00034479     0.00013395     0.04251398
O       1.90157919     2.85230608     5.73957634    -0.00003317     0.00003368     0.03290550
O       3.77764344     4.75394092     0.79319317     0.01033121     0.00008099    -0.03152894
O       1.90158346    -0.95084619     5.73960386    -0.00003317    -0.00014295     0.03290550
O       3.77765442     0.95079272     0.79320745     0.01030730     0.00008073    -0.03112887
O      -1.90150471     2.85229609     5.55606187    -0.00026225    -0.00012907     0.02222668
O       0.02544549     4.75395725     0.79315220    -0.01007899     0.00010927    -0.03129497
O      -1.90150050    -0.95085523     5.55608934    -0.00026200    -0.00001800     0.02222694
O       0.02545665     0.95080905     0.79316410    -0.01009673     0.00010953    -0.03081288
O       4.05390819     2.85237576     8.87282280    -0.02080512    -0.00035584    -0.04968376
O       5.70468336     4.75391328     3.95508056    -0.00001517    -0.00001466     0.01265755
O       4.05391236    -0.95078723     8.87285028    -0.02080512     0.00051062    -0.04968350
O       5.70467713     0.95076506     3.95512095     0.00003188    -0.00001440     0.01266269
O      -0.25078334     2.85236757     8.87288854     0.02085628    -0.00022420    -0.04980177
O       1.90158250     4.75389233     4.13285209    -0.00007508    -0.00005245     0.02098818
O      -0.25077909    -0.95078135     8.87291608     0.02085628     0.00032524    -0.04980152
O       1.90158939     0.95074412     4.13288911    -0.00011339    -0.00005271     0.02080563
O       1.90159401     0.95082701     8.14636853     0.00031985     0.00008613     0.00785344
O       3.79684441     2.85237625     3.20825587    -0.01012681     0.00001543     0.01429277
O       1.90160573    -2.85232136     8.14640201     0.00032447     0.00008639     0.00751045
O       3.79684870    -0.95075981     3.20828333    -0.01012706    -0.00008382     0.01429302
O       0.00633655     2.85239050     3.20825787     0.00998591     0.00002083     0.01434676
O       0.00634082    -0.95074112     3.20828537     0.00998617    -0.00004397     0.01434650
O       3.91041845     4.75381599     6.54755276     0.02210404    -0.00004859    -0.00096442
O       5.70474574     6.65550383     1.55703360    -0.00004371     0.00000540     0.03993259
O       3.91041735     0.95066772     6.54757175     0.02231487    -0.00004859    -0.00051036
O       5.70474991     2.85234731     1.55706117    -0.00004371     0.00013987     0.03993285
O      -0.10728502     4.75383061     6.54751286    -0.02224134    -0.00007842    -0.00053582
O       1.90154108     6.65548122     1.68276321    -0.00001157     0.00004628    -0.00283798
O      -0.10728288     0.95068229     6.54755005    -0.02252699    -0.00007816    -0.00026045
O       1.90154527     2.85232487     1.68279076    -0.00001106     0.00021469    -0.00283850
