# total energy = -19916.54714297 eV

CRYSTAL
PRIMVEC
        6.42595200     0.00000000     0.00000000
        0.68224519     6.80504210     0.00000000
        0.00000000     0.00000000    11.51547762
PRIMCOORD
24 1
Ti      2.73339646     4.03266169     4.27216017    -0.08361642    -1.35316284     0.70159826
Ti      4.37480092     2.77238047     7.24331784     0.08361642     1.35316284    -0.70159826
Ti      5.81991624     2.77238278     1.48553284     0.15622620     0.38576049    -0.52302583
Ti      1.28828116     4.03265970    10.02994536    -0.15622620    -0.38576049     0.52302583
Ti      2.39227401     0.63014069     1.48557904    -0.08361642    -1.35316284    -0.70159826
Ti      4.71592339     6.17490172    10.02989917     0.08361642     1.35316284     0.70159826
Ti      0.94715861     0.63013819     7.24327171    -0.15622620    -0.38576049    -0.52302583
Ti      6.16103872     6.17490417     4.27220636     0.15622620     0.38576049     0.52302583
O       2.27408459     2.39617102     5.87626023     1.61130015     1.64687703    -0.27553443
O       4.83411280     4.40887120     5.63921778    -1.61130015    -1.64687703     0.27553443
O       1.41939211     2.39619854     0.11855830    -1.18460717     0.89993632     0.34378387
O       5.68880535     4.40884374    11.39691944     1.18460717    -0.89993632    -0.34378387
O       4.49299033     1.00634994     0.11852097    -1.61130015    -1.64687703    -0.27553443
O       2.61520706     5.79869228    11.39695678     1.61130015     1.64687703     0.27553443
O       5.34768287     1.00632249     5.87629763     1.18460717    -0.89993632     0.34378387
O       1.76051445     5.79871974     5.63918044    -1.18460717     0.89993632    -0.34378387
O       0.64844987     4.13921252     3.11061787     0.47992101     0.43769422     0.86954278
O       6.45974745     2.66582971     8.40486014    -0.47992101    -0.43769422    -0.86954278
O       3.71371720     2.66576633     2.64715775     0.54579912     0.92416306     0.16725315
O       3.39448018     4.13927582     8.86832013    -0.54579912    -0.92416306    -0.16725315
O       0.30732740     0.73669126     2.64712094     0.47992101     0.43769422    -0.86954278
O       6.80086992     6.06835090     8.86835687    -0.47992101    -0.43769422     0.86954278
O       3.05335771     0.73675464     8.40489689    -0.54579912    -0.92416306     0.16725315
O       4.05483968     6.06828759     3.11058112     0.54579912     0.92416306    -0.16725315
