# total energy = -19902.69681638 eV

CRYSTAL
PRIMVEC
        8.47788285     0.00000000     0.00000000
        0.00002776     3.86701322     0.00000000
        0.00000000     0.00000000    12.90267508
PRIMCOORD
24 1
Ti      3.07284109     2.29158847     4.78680043     0.15349774    -0.24211393     2.74373319
Ti      5.40506916     1.57542481     8.11587483    -0.15349774     0.24211393    -2.74373319
Ti      7.31163741     1.57542613     1.66448560     0.15701630     0.24243121    -2.74478631
Ti      1.16627284     2.29158727    11.23818979    -0.15701630    -0.24243121     2.74478631
Ti      3.07282739     0.35808192     1.66453736     0.15349774    -0.24211393    -2.74373319
Ti      5.40508285     3.50893142    11.23813803    -0.15349774     0.24211393     2.74373319
Ti      1.16625914     0.35808048     8.11582307    -0.15701630    -0.24243121    -2.74478631
Ti      7.31165110     3.50893286     4.78685219     0.15701630     0.24243121     2.74478631
O       2.68331313     1.36164108     6.58413638     1.67849544     0.90534387    -2.13929823
O       5.79459712     2.50537214     6.31853889    -1.67849544    -0.90534387     2.13929823
O       1.55569722     1.36165668     0.13284026    -1.67923566     0.90543128    -2.14023335
O       6.92221308     2.50535660    12.76983463     1.67923566    -0.90543128     2.14023335
O       5.79458348     0.57186553     0.13279841    -1.67849544    -0.90534387    -2.13929823
O       2.68332676     3.29514775    12.76987649     1.67849544     0.90534387     2.13929823
O       6.92219945     0.57184993     6.58417823     1.67923566    -0.90543128    -2.14023335
O       1.55571073     3.29516335     6.31849703    -1.67923566     0.90543128     2.14023335
O       0.30803785     2.35213663     3.48533446    -1.94210998     0.56133836     0.08710258
O       8.16987239     1.51487659     9.41734080     1.94210998    -0.56133836    -0.08710258
O       4.54699006     1.51484056     2.96604419    -1.94099206    -0.56125095    -0.08778495
O       3.93092018     2.35217272     9.93663089     1.94099206     0.56125095     0.08778495
O       0.30802422     0.41863002     2.96600302    -1.94210998     0.56133836    -0.08710258
O       8.16988603     3.44838326     9.93667206     1.94210998    -0.56133836     0.08710258
O       3.93090655     0.41866605     9.41738191     1.94099206     0.56125095    -0.08778495
O       4.54700369     3.44834723     3.48529329    -1.94099206    -0.56125095     0.08778495
