# total energy = -19912.38745889 eV

CRYSTAL
PRIMVEC
        6.60296631     0.00000000     0.00000000
        0.00002210     3.38363656     0.00000000
        0.00000000     0.00000000     9.97603284
PRIMCOORD
24 1
Ti      2.39327091     2.00513996     3.70103703    -0.90692484     1.54542461    -1.81533397
Ti      4.20971765     1.37849676     6.27499591     0.90692484    -1.54542461     1.81533397
Ti      5.69464104     1.37849796     1.28693958    -0.89705617    -1.54733417     1.81870186
Ti      0.90834757     2.00513891     8.68909351     0.89705617     1.54733417    -1.81870186
Ti      2.39325991     0.31332173     1.28697959    -0.90692484     1.54542461     1.81533397
Ti      4.20972870     3.07031509     8.68905350     0.90692484    -1.54542461    -1.81533397
Ti      0.90833652     0.31332043     6.27495590     0.89705617     1.54733417     1.81870186
Ti      5.69465204     3.07031639     3.70107704    -0.89705617    -1.54733417    -1.81870186
O       2.08988839     1.19143600     5.09069321     5.40668048    -1.98611417     4.02815344
O       4.51310022     2.19220071     4.88533973    -5.40668048     1.98611417    -4.02815344
O       1.21164911     1.19144962     0.10270884    -5.41203044    -1.98639982     4.02789505
O       5.39133955     2.19218709     9.87332380     5.41203044     1.98639982    -4.02789505
O       4.51308917     0.50038243     0.10267649    -5.40668048     1.98611417     4.02815344
O       2.08989939     2.88325429     9.87335620     5.40668048    -1.98611417    -4.02815344
O       5.39132855     0.50036881     5.09072556     5.41203044     1.98639982     4.02789505
O       1.21165996     2.88326795     4.88530738    -5.41203044    -1.98639982    -4.02789505
O       0.23991458     2.05811960     2.69477534     2.61379576    -0.80733286     1.19998340
O       6.36307398     1.32551717     7.28125760    -2.61379576     0.80733286    -1.19998340
O       3.54140599     1.32548558     2.29327283     2.61179055     0.80624966    -1.20148749
O       3.06158257     2.05815118     7.68275996    -2.61179055    -0.80624966     1.20148749
O       0.23990358     0.36630127     2.29324098     2.61379576    -0.80733286    -1.19998340
O       6.36308504     3.01733545     7.68279181    -2.61379576     0.80733286     1.19998340
O       3.06157157     0.36633285     7.28128940    -2.61179055    -0.80624966    -1.20148749
O       3.54141705     3.01730386     2.69474349     2.61179055     0.80624966     1.20148749
