# total energy = -19958.11431408 eV

CRYSTAL
PRIMVEC
        5.60792763     0.00000000     0.00000000
        0.00002608     4.88334361     0.00000000
        0.00000000     0.00000000     9.21667365
PRIMCOORD
24 1
Ti      2.03261948     2.89386480     3.41932030    -0.18014801     0.84457839    -1.46542727
Ti      3.57533428     1.98947860     5.79735371     0.18014801    -0.84457839     1.46542727
Ti      4.83648613     1.98948018     1.18897988    -0.17769312    -0.84486533     1.46673442
Ti      0.77146763     2.89386338     8.02769424     0.17769312     0.84486533    -1.46673442
Ti      2.03260665     0.45219310     1.18901683    -0.18054987     0.84348619     1.46518070
Ti      3.57534711     4.43115046     8.02765728     0.18054987    -0.84348619    -1.46518070
Ti      0.77145480     0.45219131     5.79731675     0.17782990     0.84342345     1.46639761
Ti      4.83649896     4.43115220     3.41935726    -0.17782990    -0.84342345    -1.46639761
O       1.77495370     1.71950823     4.70319815     0.50040679    -0.66491092     0.82847762
O       3.83300006     3.16383518     4.51347586    -0.50040679     0.66491092    -0.82847762
O       1.02906125     1.71952796     0.09489083    -0.50055078    -0.66508498     0.82837324
O       4.57889256     3.16381549     9.12178292     0.50055078     0.66508498    -0.82837324
O       3.83298723     0.72216332     0.09486091    -0.50062688     0.66489549     0.82836218
O       1.77496653     4.16118009     9.12181284     0.50062688    -0.66489549    -0.82836218
O       4.57887968     0.72214364     4.70322807     0.50040525     0.66541357     0.82840460
O       1.02907398     4.16119982     4.51344594    -0.50040525    -0.66541357    -0.82840460
O       0.20376474     2.97032643     2.48965358     0.51394931    -0.27632479     0.39830491
O       5.40418902     1.91301698     6.72702043    -0.51394931     0.27632479    -0.39830491
O       3.00773417     1.91297159     2.11871275     0.51496053     0.27662149    -0.39804574
O       2.60021959     2.97037181     7.09796111    -0.51496053    -0.27662149     0.39804574
O       0.20375186     0.52865457     2.11868330     0.51418971    -0.27658755    -0.39801592
O       5.40420190     4.35468883     7.09799056    -0.51418971     0.27658755     0.39801592
O       2.60020671     0.52869996     6.72704983    -0.51503432    -0.27649705    -0.39858773
O       3.00774705     4.35464345     2.48962413     0.51503432     0.27649705     0.39858773
