# total energy = -19519.85280683 eV

CRYSTAL
PRIMVEC
        5.17575250     0.00001323     0.00000000
        0.00001429     5.50856584     0.00000000
        0.00000000     0.00000000     9.26345890
PRIMCOORD
23 1
Ti      1.86734522     3.28845556     3.41596280    -0.13214807     0.10895928     0.01784012
Ti      3.30623606     2.22273181     5.78141977     0.00118502    -0.15139047    -0.04098854
Ti      4.52855830     2.04570368     1.34564985    -0.07889382     0.04016039    -0.02958724
Ti      0.80772934     3.25583595     7.96334663     0.15061065    -0.04623591     0.05000952
Ti      1.87699957     0.56910267     1.14373289    -0.13940912     0.04379876     0.08783612
Ti      3.21702749     5.09263613     7.99472750     0.01778253    -0.00306347    -0.18437722
Ti      0.66515426     0.50935598     5.79668335     0.07551127     0.18490198    -0.05227800
Ti      4.41668142     4.92200084     3.45207553    -0.04567027    -0.05572920    -0.01582489
O       1.62568649     1.94340635     4.72693238     0.02965023     0.00545228    -0.07860225
O       3.53034279     3.58789806     4.52098746    -0.01823504    -0.04533268     0.09283871
O       0.86899875     1.99163399     0.07862994    -0.02461267    -0.04257311     0.04118780
O       3.56028363     0.83464470     0.09780418     0.03181998     0.11912054    -0.00145962
O       1.67601984     4.66006741     9.20563397     0.03109236    -0.01469000    -0.16129462
O       4.23640870     0.82534040     4.74331311    -0.09846737    -0.02906453    -0.06609974
O       0.94911324     4.67859697     4.55898330     0.01706596    -0.12709405     0.02990605
O       0.17048528     3.40893815     2.45773982    -0.02706010    -0.15561993    -0.04441248
O       4.98995812     2.12809791     6.77952510    -0.01113211     0.12104193     0.07423857
O       2.74253923     2.18965038     2.09689307     0.18971997     0.03687143     0.03210846
O       2.51481084     3.36020141     7.17362465    -0.09322386    -0.03807754     0.00589348
O       0.18718466     0.59849351     2.17180677     0.20375126     0.00381140     0.08624974
O       4.96749641     4.84978643     7.25995763     0.03819838     0.02633016    -0.02630677
O       2.38872361     0.63609693     6.74099131    -0.08352360     0.00946938     0.18386737
O       2.78940465     4.93537994     2.48700194    -0.03401108     0.00895336    -0.00074485
