# total energy = -19519.97551485 eV

CRYSTAL
PRIMVEC
        5.17575250     0.00001323     0.00000000
        0.00001429     5.50856584     0.00000000
        0.00000000     0.00000000     9.26345890
PRIMCOORD
23 1
Ti      1.84701855     3.37245910     3.37861455     0.05176224    -0.05324062     0.05170156
Ti      3.35931090     2.18407770     5.77505610    -0.04985937    -0.00286832    -0.02926971
Ti      4.55892904     1.95050230     1.40715638     0.01013581    -0.06638771     0.04932200
Ti      0.87197655     3.28860113     7.94035714    -0.03893680     0.00698183     0.05435751
Ti      1.99605968     0.53084903     1.22318008    -0.13042131     0.09337659    -0.01112388
Ti      3.18202514     5.15291766     7.93812579     0.01885056     0.04915668    -0.02518448
Ti      0.67163485     0.71109670     5.66436802    -0.07376575    -0.05152338     0.02755452
Ti      4.50070576     4.85441768     3.53785191    -0.00756753    -0.00682448     0.01865979
O       1.57459681     1.92342908     4.65396537    -0.00984656     0.13136825    -0.01157408
O       3.53142105     3.54458475     4.52013506     0.01585574     0.04456546    -0.01391302
O       0.77611829     2.09643870     0.11153923    -0.09262274    -0.00950409     0.00189593
O       3.51352215     0.91389345     0.07191476     0.11491576     0.00145550    -0.05066592
O       1.72658799     4.68728932     9.15694683     0.03178836    -0.04265410    -0.02296819
O       4.10713774     0.77215602     4.73337073     0.02421800    -0.05366229    -0.08310528
O       0.95348271     4.64120384     4.56956314     0.14774336    -0.05182163     0.15753952
O       0.16787029     3.35833130     2.43414803    -0.01385491    -0.01793422    -0.02531920
O       4.95866120     2.11139333     6.81771076     0.05965373     0.06268558     0.04339792
O       2.78040250     2.16525499     2.11783361    -0.02244934    -0.08205062    -0.10305165
O       2.52572799     3.40404448     7.15265992    -0.05037719    -0.04446545    -0.00502394
O       0.22722100     0.53862202     2.18867276     0.09709723     0.10755880    -0.09890909
O       4.92616765     4.74383486     7.39608623    -0.08041771     0.03572164    -0.01709861
O       2.32749853     0.71089469     6.75994846    -0.02703979    -0.02956024     0.00372836
O       2.79911151     4.87776303     2.44421812     0.02513871    -0.02037343     0.08905019
