# total energy = -19075.00459910 eV

CRYSTAL
PRIMVEC
        7.60600008     0.00000000     0.00000000
        0.00000000     7.60600008     0.00000000
       -1.89786986    -1.89786986     4.85670466
PRIMCOORD
22 1
Ti      3.64376198     6.74224200     1.12008303     1.55128004    -0.42341277     1.07171307
Ti      3.92742200     2.89295699     1.46637201    -0.71687036     1.08559729     0.96648935
Ti      0.08731901     6.65164997     1.06565402    -0.62369818     0.11951495     2.29582860
Ti     -0.18289101     2.83013302     1.23431297     0.46863335    -0.28392060    -0.20776192
Ti      5.91238121     2.81452525     3.83716981    -0.85665152     0.14283152    -1.39491114
Ti      5.84588823    -0.77917476     3.57049580    -0.69000747    -0.99441283     0.23792252
Ti      1.87371022     2.80682323     3.88148380     1.61326859     0.12377861     0.72780990
Ti      1.72868624    -0.65992076     3.75951379     1.63684407    -2.10778344     0.68392681
O       3.86013298     4.71781802     0.97481001    -1.00627127     0.86295947    -0.93123848
O       3.57277598     1.16768898     0.98562898    -0.72826396    -2.54275049    -0.24180334
O      -0.03369600     4.69236798     1.06478300     0.51444425     0.24470843    -1.07590603
O      -0.09028298     0.97319898     0.64131002     0.04390803    -0.08085068     1.33407162
O       5.73862924     4.70225724     4.13800279     0.37016649     0.77057019    -1.55064729
O       5.48211121     1.00999722     4.02944584    -0.19649740    -0.01495817     0.14649277
O       1.79093521     4.82805823     4.19192183    -0.39857847     0.55462547    -0.86485566
O       2.46705625     0.89464521     4.27562179    -0.60454294     1.30317312    -1.27693372
O       3.64109323     3.15236725     3.36925980    -0.06820702    -0.63473799    -0.84322008
O       0.12016520     2.59066925     3.24579481     0.19625572     0.08240054     0.35501934
O       5.57634598     6.55530198     1.71062298    -0.19043885     0.65023300     0.15002264
O       5.67976500     2.94270198     1.76083502     1.01171224    -0.54257702     1.33181830
O       1.93438198     6.35531802     1.78324298    -0.54445649     1.41409724     0.19417107
O       0.01027821    -0.51347577     3.40472579    -0.78202934     0.27091364    -1.10800806
