# total energy = -19960.32922363 eV

CRYSTAL
PRIMVEC
        7.60600008     0.00000000     0.00000000
        0.00000000     7.60600008     0.00000000
       -1.89786986    -1.89786986     4.85670466
PRIMCOORD
24 1
Ti      3.81005202     6.46006802     1.26783302     0.90620981     0.44045507     0.31090588
Ti      3.76839899     2.77706500     1.21732601     0.66110157    -0.53054656     0.66782784
Ti      0.06462498     6.74741502     1.32155102    -1.09345510    -0.73399109    -1.95069746
Ti      0.00087002     2.93992301     1.09746901    -0.11316149     0.65925912    -0.57954307
Ti      5.68786125     3.05536720     3.57648784    -1.93804403    -0.20198260    -0.25752976
Ti      5.75997424    -0.87081377     3.68187179    -1.12040824     0.00030853    -0.79403743
Ti      1.74514323     2.79186223     3.60497583     1.64965665    -0.38688509    -0.39956064
Ti      1.91229624    -0.99371079     3.64947080     0.87299449    -0.04690928     1.63344250
O       3.77535699     4.66401900     0.80477303    -0.19312026    -0.67387893     0.16449153
O       3.77748301     0.83425698     0.75179598    -0.04675270    -0.71344334     0.22432035
O       0.20713903     4.93307002     0.56985701    -0.45907964    -1.04660650     3.00923388
O       0.01669200     1.04219501     0.70510900     0.09047638    -0.27019656     1.79233288
O       5.79563825     4.86796920     4.09850781     0.13643384     0.54257033    -0.33928753
O       5.73368122     1.14402020     4.05797383    -0.41347468    -1.73511424    -0.63288705
O       1.84724221     4.49022724     4.17877283    -0.57538533     2.82697783    -0.95283010
O       1.93520025     0.85009722     4.09516981    -0.20765265     0.16366415    -0.92399568
O       3.69881520     2.93298020     3.27853982     0.35257576    -0.38177322    -0.54813394
O       3.87415120    -1.15784078     3.26780679    -1.35411492     0.71887428    -0.10559550
O      -0.15853177     2.88803220     2.96720183     2.79038279     0.11682711     1.64787231
O      -0.03400578    -0.82092775     3.24919584     1.97621284    -0.00371499     0.31329495
O       5.78581000     6.49087502     1.72135798    -0.45854202     0.39751841    -1.13722069
O       5.59925697     2.83171700     1.63005702     0.56858219     0.25010055    -1.31992772
O       1.90800800     6.42548703     1.73724298     0.19297268     0.68620301    -0.15206461
O       1.94211501     2.81528801     1.58472801    -2.22440821    -0.07771599     0.32958958
