# total energy = -19915.35626615 eV

CRYSTAL
PRIMVEC
        7.42720506     0.00000000     0.00000000
        0.00002432     3.38776799     0.00000000
        0.00000000     0.00000000    11.30362560
PRIMCOORD
24 1
Ti      2.69201890     2.00758819     4.19356448    -0.37656777     0.28997452     1.39692766
Ti      4.73521016     1.38017986     7.11006128     0.37656777    -0.28997452    -1.39692766
Ti      6.40549431     1.38018101     1.45820319    -0.37704368    -0.28981588    -1.39660062
Ti      1.02173475     2.00758714     9.84542268     0.37704368     0.28981588     1.39660062
Ti      2.69200690     0.31370425     1.45824854    -0.37656777     0.28997452    -1.39692766
Ti      4.73522216     3.07406385     9.84537734     0.37656777    -0.28997452     1.39692766
Ti      1.02172275     0.31370299     7.11001594     0.37704368     0.28981588    -1.39660062
Ti      6.40550631     3.07406511     4.19360983    -0.37704368    -0.28981588     1.39660062
O       2.35076577     1.19289069     5.76815366     4.22187611    -0.21663301     0.42338089
O       5.07646328     2.19487730     5.53547210    -4.22187611     0.21663301    -0.42338089
O       1.36289714     1.19290435     0.11637715    -4.21825728    -0.21779720     0.42398072
O       6.06433198     2.19486369    11.18724829     4.21825728     0.21779720    -0.42398072
O       5.07645134     0.50099331     0.11634048    -4.22187611     0.21663301     0.42338089
O       2.35077772     2.88677474    11.18728496     4.22187611    -0.21663301    -0.42338089
O       6.06432003     0.50097964     5.76819033     4.21825728     0.21779720     0.42398072
O       1.36290897     2.88678840     5.53543543    -4.21825728    -0.21779720    -0.42398072
O       0.26986222     2.06063252     3.05339130    -0.13068999    -0.11297226     0.44329229
O       7.15736684     1.32713547     8.25023446     0.13068999     0.11297226    -0.44329229
O       3.98347420     1.32710391     2.59845752    -0.12812660     0.11332553    -0.44425645
O       3.44375486     2.06066414     8.70516809     0.12812660    -0.11332553     0.44425645
O       0.26985027     0.36674852     2.59842145    -0.13068999    -0.11297226    -0.44329229
O       7.15737878     3.02101952     8.70520416     0.13068999     0.11297226     0.44329229
O       3.44374292     0.36678009     8.25027048     0.12812660    -0.11332553    -0.44425645
O       3.98348614     3.02098796     3.05335523    -0.12812660     0.11332553     0.44425645
