# total energy = -19947.57279244 eV

CRYSTAL
PRIMVEC
        5.09678053     0.00000000     0.00000000
        1.84218913     5.10212848     0.00000000
        0.00000000     0.00000000     9.26943164
PRIMCOORD
24 1
Ti      2.93901745     3.02351653     3.43889304     2.55704635    -2.93853983     1.15631885
Ti      3.99995239     2.07861181     5.83053870    -2.55704635     2.93853983    -1.15631885
Ti      5.14615435     2.07861354     1.19578582    -5.16052812     0.38099598     1.65183541
Ti      1.79281552     3.02351495     8.07364602     5.16052812    -0.38099598    -1.65183541
Ti      2.01792301     0.47245243     1.19582298     2.55704635    -2.93853983    -1.15631885
Ti      4.92104685     4.62967601     8.07360886    -2.55704635     2.93853983     1.15631885
Ti      0.87172098     0.47245055     5.83050154     5.16052812    -0.38099598     1.65183541
Ti      6.06724889     4.62967794     3.43893020    -5.16052812     0.38099598    -1.65183541
O       2.26182937     1.79654611     4.73012001    -0.23943381     0.70668416    -1.04009286
O       4.67714047     3.30558223     4.53931172     0.23943381    -0.70668416     1.04009286
O       1.58393042     1.79656669     0.09543402     1.04445191    -0.70724055    -0.14194500
O       5.35503948     3.30556169     9.17399746    -1.04445191     0.70724055     0.14194500
O       3.75604602     0.75451802     0.09540394     0.23943381    -0.70668416    -1.04009286
O       3.18292382     4.34761032     9.17402754    -0.23943381     0.70668416     1.04009286
O       4.43394501     0.75449743     4.73015009    -1.04445191     0.70724055    -0.14194500
O       2.50502478     4.34763092     4.53928165     1.04445191    -0.70724055     0.14194500
O       1.30570164     3.10340368     2.50390474     0.01212713    -0.84727445    -0.94156995
O       5.63326820     1.99872466     6.76552700    -0.01212713     0.84727445     0.94156995
O       3.45522640     1.99867713     2.13084059     1.75477239    -1.19969055    -1.93193303
O       3.48374344     3.10345121     7.13859099    -1.75477239     1.19969055     1.93193303
O       0.38460719     0.55233948     2.13081097     0.01212713    -0.84727445     0.94156995
O       6.55436265     4.54978886     7.13862061    -0.01212713     0.84727445    -0.94156995
O       2.56264899     0.55238700     6.76555651    -1.75477239     1.19969055    -1.93193303
O       4.37632085     4.54974134     2.50387517     1.75477239    -1.19969055     1.93193303
