# total energy = -19070.05426383 eV

CRYSTAL
PRIMVEC
        5.93400000     0.00000000     0.00000000
        0.00000000     9.29699974     0.00000000
        0.00000000     0.00000000     4.64899994
PRIMCOORD
22 1
Ti      4.35203800     7.18880600     2.29657301     1.24393848    -0.71537398    -0.12183871
Ti      4.47021101     2.25789301     2.18871600    -1.71040747    -2.31921279     2.41991985
Ti      1.48246001     7.17881900     2.60669501     0.10096494    -1.81924102    -0.71220150
Ti      1.54075100     2.33096001     2.16767300     1.52970513     0.59777888     1.49768923
Ti      3.12633998     4.78423198     4.59846399    -2.34171355    -0.86124737    -0.98955961
Ti      2.87896999     0.14102097     0.33209503     1.85237613     2.67513433    -0.84053533
Ti      0.01980102     4.58844402     4.26520203     3.37578437     0.99243436     1.82654527
Ti      5.88532803     8.92712601     4.64405902     0.38607262     0.47029145     1.55476260
O       4.24746400     5.72410201     0.82975099     1.85261807     0.65368728     2.33367036
O       4.62686700     0.56520200     1.40563300     1.18263462    -1.13486736    -2.16056255
O       1.28971799     0.85813902     1.08547901    -1.65001892    -1.80294614    -1.58447145
O       4.36042700     8.37770900     3.79254498    -0.20583103     1.05190169     0.72638679
O       4.48382801     4.07888898     3.59044700    -1.68353635    -3.24708415    -2.22256781
O       1.81227100     8.39232901     3.80296602    -1.88401665     1.97375975     1.98747402
O       1.63515601     3.60372099     3.75001702    -2.13213848     1.33220474    -0.12001168
O       2.94672299     6.07691099     3.29176301    -0.47069486     0.24446315    -0.81119132
O       2.92368499     1.36491598     3.15886898    -0.76102985     0.19445132     2.21695946
O       5.90594699     6.49772702     3.38992899    -0.28795286    -3.36193049     1.53928070
O       2.87528199     8.01523502     1.56663602    -0.46922907    -0.46207857    -0.90339497
O       3.07441600     2.37675601     1.11525100    -0.85361891     3.36563159    -2.90435495
O       0.11703199     7.64381800     1.36828298    -0.31412413     0.50472034    -1.14129846
O       5.61790402     3.20362500     1.31822699     3.24021725     1.66752377    -1.59069944
