# total energy = -4969.13213640 eV

CRYSTAL
PRIMVEC
        5.11713570     0.00000000     0.00000000
       -0.00000725     2.75538110     0.00000000
       -2.55859626    -1.37775255     5.52037485
PRIMCOORD
6 1
Ti     -0.00021902     2.06663077     1.38009349    -0.01211401    -0.01551558    22.71644173
Ti      2.55875083    -0.68900205     4.14028092     0.01211401     0.01551558   -22.71644173
O       0.00005432     0.68883448     0.89922389     0.01053510     0.01323527   -15.43951981
O       2.55847738     0.68879412     4.62115063    -0.01053510    -0.01323527    15.43951981
O      -0.00002090    -0.68885316     3.65941132    -0.00198978     0.00010182    -1.91290506
O       2.55855249     2.06648177     1.86096321     0.00198978    -0.00010182     1.91290506
