# total energy = -19518.40777598 eV

CRYSTAL
PRIMVEC
        5.93400000     0.00000000     0.00000000
        0.00000000     9.29699974     0.00000000
        0.00000000     0.00000000     4.64899994
PRIMCOORD
23 1
Ti      4.52617103     7.03330901     2.29336900     0.20185018     0.07578227    -0.34048900
Ti      4.49221901     2.30929798     2.32071498    -0.74963574    -0.48167527     0.34879418
Ti      1.46447401     7.09646902     2.34590202    -0.06008182    -0.26239634    -0.60522994
Ti      1.41136600     2.32275300     2.32130702     0.70532019    -0.36964507    -0.05856024
Ti      2.99941100     4.43597001     0.04560402    -0.26515334     0.27265248     1.08161105
Ti      2.93077798     0.06517897     4.62611102     0.40248141    -0.07625509    -0.09223168
Ti      0.03370399     4.65624602     0.01591199     0.26780672     0.80824021     0.06731408
Ti      5.89353001     0.04945400     0.01488099    -0.22399253    -0.10494707    -0.15478355
O       4.40222401     5.57747001     0.90412500    -0.26621495    -0.16252463    -0.17255477
O       4.46434402     0.91330702     0.91625998    -0.35481442    -0.23408926    -0.25952211
O       1.54652999     5.54815999     0.90761302    -0.00967147    -0.22336236    -0.16682480
O       1.45372299     0.91756901     0.83805103     0.38078283     0.32934224     0.47476903
O       4.46390501     8.45499598     3.74833000    -0.38218023    -1.04517876    -0.46807490
O       4.45431003     3.66427400     3.72122999    -0.08457904     0.83116366     0.01127609
O       1.52784701     8.29369598     3.79314703     0.01798822     0.05989696    -0.00611203
O       1.41383101     3.65829700     3.71729899     0.46373462     0.83440273     0.06921104
O       2.87891501     1.51741799     3.22138900     0.41342249    -1.29328105     0.54721015
O       0.01080400     6.01169799     3.25452502    -0.22207526     0.54599607    -0.52779908
O       0.00156700     1.31692500     3.17300802     0.18826293     0.43890470    -0.07141113
O       3.00361298     7.94522202     1.47383299    -0.21555006    -0.71142708     0.44616858
O       3.02193601     3.17347401     1.36288701    -0.68284977     0.30883126    -0.16663943
O       0.02004301     7.93584103     1.46405099    -0.06564800    -0.18027836    -0.15634216
O       5.84767701     3.15053000     1.32997600     0.54079678     0.63984754     0.20022010
