# total energy = -19911.80997905 eV

CRYSTAL
PRIMVEC
        8.10522848     0.00000000     0.00000000
        0.00002713     4.15345864     0.00000000
        0.00000000     0.00000000    12.24571227
PRIMCOORD
24 1
Ti      2.93777170     2.46133582     4.54307191     0.24604978    -0.24963004     2.65725436
Ti      5.16748410     1.69212300     7.70264048    -0.24604978     0.24963004    -2.65725436
Ti      6.99024720     1.69212448     1.57973536     0.24644933     0.24946009    -2.65751867
Ti      1.11500866     2.46133453    10.66597722    -0.24644933    -0.24946009     2.65751867
Ti      2.93775819     0.38460656     1.57978447     0.24604978    -0.24963004    -2.65725436
Ti      5.16749767     3.76885238    10.66592811    -0.24604978     0.24963004     2.65725436
Ti      1.11499510     0.38460497     7.70259137    -0.24644933    -0.24946009    -2.65751867
Ti      6.99026070     3.76885398     4.54312102     0.24644933     0.24946009     2.65751867
O       2.56536564     1.46250345     6.24889325     1.46704347     1.05169188    -1.93192198
O       5.53989022     2.69095537     5.99681914    -1.46704347    -1.05169188     1.93192198
O       1.48731531     1.46252017     0.12607646    -1.46731986     1.05208938    -1.93370195
O       6.61794061     2.69093866    12.11963556     1.46731986    -1.05208938     1.93370195
O       5.53987665     0.61422605     0.12603674    -1.46704347    -1.05169188    -1.93192198
O       2.56537915     3.53923277    12.11967534     1.46704347     1.05169188     1.93192198
O       6.61792711     0.61420934     6.24893296     1.46731986    -1.05208938    -1.93370195
O       1.48732863     3.53924955     5.99677943    -1.46731986     1.05208938     1.93370195
O       0.29449832     2.52636903     3.30787238    -2.06347586     0.64956811     0.23009839
O       7.81075748     1.62708985     8.93784001     2.06347586    -0.64956811    -0.23009839
O       4.34712270     1.62705108     2.81502274    -2.06326452    -0.64964370    -0.23000686
O       3.75813310     2.52640780     9.43068947     2.06326452     0.64964370     0.23000686
O       0.29448481     0.44963965     2.81498363    -2.06347586     0.64956811    -0.23009839
O       7.81077105     3.70381917     9.43072857     2.06347586    -0.64956811     0.23009839
O       3.75811959     0.44967842     8.93787905     2.06326452     0.64964370    -0.23000686
O       4.34713627     3.70378040     3.30783328    -2.06326452    -0.64964370     0.23000686
