# total energy = -19907.57371340 eV

CRYSTAL
PRIMVEC
        6.92903887     0.00000000     0.00000000
        0.00003448     6.67225037     0.00000000
        0.00000000     0.00000000    11.84051126
PRIMCOORD
24 1
Ti      2.51146380     3.95396933     4.39274533     0.23194496    -0.94126168     0.78679000
Ti      4.41760956     2.71828091     7.44776633    -0.23194496     0.94126168    -0.78679000
Ti      5.97586247     2.71828320     1.52746320     0.23285950     0.94115652    -0.78677174
Ti      0.95321095     3.95396737    10.31304866    -0.23285950    -0.94115652     0.78677174
Ti      2.51144662     0.61784428     1.52751070     0.23194496    -0.94126168    -0.78679000
Ti      4.41762680     6.05440616    10.31300116    -0.23194496     0.94126168     0.78679000
Ti      0.95319371     0.61784185     7.44771890    -0.23285950    -0.94115652    -0.78677174
Ti      5.97587965     6.05440866     4.39279283     0.23285950     0.94115652     0.78677174
O       2.19309671     2.34941270     6.04212242     1.15219172     1.38023528    -0.47209662
O       4.73597671     4.32283753     5.79838925    -1.15219172    -1.38023528     0.47209662
O       1.27148761     2.34943968     0.12190471    -1.15156514     1.38105238    -0.47356241
O       5.65758588     4.32281062    11.71860669     1.15156514    -1.38105238     0.47356241
O       4.73595946     0.98671228     0.12186632    -1.15219172    -1.38023528    -0.47209662
O       2.19311396     5.68553795    11.71864508     1.15219172     1.38023528     0.47209662
O       5.65756864     0.98668537     6.04216087     1.15156514    -1.38105238    -0.47356241
O       1.27150465     5.68556493     5.79835086    -1.15156514     1.38105238     0.47356241
O       0.25176910     4.05844093     3.19841756    -0.18411857    -0.11531171     0.10952235
O       6.67730432     2.61380938     8.64209410     0.18411857     0.11531171    -0.10952235
O       3.71629467     2.61374727     2.72187592    -0.18355729     0.11577270    -0.10989362
O       3.21277868     4.05850303     9.11863561     0.18355729    -0.11577270     0.10989362
O       0.25175186     0.72231567     2.72183806    -0.18411857    -0.11531171    -0.10952235
O       6.67732149     5.94993463     9.11867340     0.18411857     0.11531171     0.10952235
O       3.21276151     0.72237778     8.64213188     0.18355729    -0.11577270    -0.10989362
O       3.71631191     5.94987246     3.19837978    -0.18355729     0.11577270     0.10989362
