# total energy = -19961.29233045 eV

CRYSTAL
PRIMVEC
        7.60600008     0.00000000     0.00000000
        0.00000000     7.60600008     0.00000000
       -1.89786986    -1.89786986     4.85670466
PRIMCOORD
24 1
Ti      3.64931501     6.75567701     1.30031302     1.68173632    -1.16375860    -0.42259773
Ti      3.82184002     2.92045002     1.22742399     0.23180895     1.11900390    -0.93010771
Ti      0.10794798     6.54339899     1.16675302    -2.18132705     0.33135079     0.00988461
Ti      0.04893201     2.75294002     1.09714298    -0.35880324    -0.17995183     1.59580231
Ti      5.71804224     2.75193422     3.59299780     0.71039170     0.41978983    -0.25459433
Ti      5.68447123    -1.07467576     3.56144883     0.43675628    -0.14441995    -0.32085708
Ti      1.95513722     3.00268221     3.59572682    -0.80696777    -0.83342366     1.49235547
Ti      1.82827522    -0.90649079     3.69815479    -0.29500694     0.74242354     0.71965693
O       3.62211800     4.82492201     0.82370900     0.77023286     0.01771825    -0.30071145
O       3.75846702     1.02348399     0.95750797    -0.12948080    -1.19595036    -0.70140723
O       0.15606601     4.65286601     0.76933598    -0.12536575    -0.00856306    -0.37462761
O       0.10973400     0.82045101     0.81574202    -0.05616140     1.30032434    -0.56631988
O       5.75650221     4.67782021     4.01975681     0.03431473     0.35426009     0.20658076
O       5.58709225     0.85722920     4.04379284     0.03950707     0.24490358    -0.21711509
O       1.73922522     4.80857022     4.16296980     0.22895168     0.51920979    -0.40534819
O       1.91646124     0.95205824     4.11841080     0.12112112     0.65182297    -0.19524090
O       3.83757823     3.03807523     3.28109580    -0.21825306    -0.37384677     0.30650595
O       3.69835122    -0.96073977     3.26383981     1.29253183    -0.18810198    -0.19363731
O      -0.01407379     2.86503924     3.14272781     0.09275027    -0.39047564    -0.15011083
O      -0.01156480    -0.78011776     3.18636080     0.34097109    -0.56871126     0.66101287
O       5.82541802     6.49262999     1.65585203    -1.65640066     0.13314463     0.04553605
O       5.65497098     2.82079902     1.58667798     1.58810005    -0.08772170     0.25029724
O       1.87067301     6.66442098     1.69143999     0.27968393    -0.06906243     0.23335084
O       2.00334198     2.95642799     1.70850701    -2.02109172    -0.62996345    -0.48830769
