# total energy = -19933.35585337 eV

CRYSTAL
PRIMVEC
        5.86855477     0.00000000     0.00000000
        2.93928004     5.51109040     0.00000000
        0.00000000     0.00000000    10.86912535
PRIMCOORD
24 1
Ti      3.86888350     3.26586707     4.03236800     1.28486146    -3.37700873     0.73610582
Ti      4.93895147     2.24522347     6.83675746    -1.28486146     3.37700873    -0.73610582
Ti      6.25871605     2.24522543     1.40215131    -3.04341517    -0.77606258     0.93466859
Ti      2.54911910     3.26586536     9.46697421     3.04341517     0.77606258    -0.93466859
Ti      2.39924371     0.51032206     1.40219491     1.28486146    -3.37700873    -0.73610582
Ti      6.40859137     5.00076870     9.46693067    -1.28486146     3.37700873     0.73610582
Ti      1.07947903     0.51031994     6.83671386     3.04341517     0.77606258     0.93466859
Ti      7.72835604     5.00077076     4.03241154    -3.04341517    -0.77606258    -0.93466859
O       2.89240516     1.94054866     5.54643149     1.51609988     2.00330688    -1.18958971
O       5.91542987     3.57054193     5.32269397    -1.51609988    -2.00330688     1.18958971
O       2.11185943     1.94057084     0.11190374     0.88360467    -1.24813324     1.32713401
O       6.69597568     3.57051978    10.75722137    -0.88360467     1.24813324    -1.32713401
O       4.44578997     0.81499670     0.11186847    -1.51609988    -2.00330688    -1.18958971
O       4.36204506     4.69609383    10.75725665     1.51609988     2.00330688     1.18958971
O       5.22633577     0.81497456     5.54646671    -0.88360467     1.24813324     1.32713401
O       3.58149921     4.69611604     5.32265870     0.88360467    -1.24813324    -1.32713401
O       2.00105488     3.35215755     2.93602192     0.67577898     2.39413065     2.26371319
O       6.80678015     2.15893303     7.93310349    -0.67577898    -2.39413065    -2.26371319
O       4.29892326     2.15888156     2.49857533     1.12794955     1.44731719     0.97651486
O       4.50891178     3.35220902     8.37054990    -1.12794955    -1.44731719    -0.97651486
O       0.53141498     0.59661232     2.49854064     0.67577898     2.39413065    -2.26371319
O       8.27642005     4.91447820     8.37058459    -0.67577898    -2.39413065     2.26371319
O       3.03927187     0.59666379     7.93313812    -1.12794955    -1.44731719     0.97651486
O       5.76856315     4.91442673     2.93598722     1.12794955     1.44731719    -0.97651486
