# total energy = -19517.34743617 eV

CRYSTAL
PRIMVEC
        5.17600016     0.00000000     0.00000000
        0.00000000     5.50899976     0.00000000
        0.00000000     0.00000000     9.26300011
PRIMCOORD
23 1
Ti      1.85068498     3.21319601     3.43021600    -0.04338712    -0.99810622     2.92585632
Ti      3.45101102     2.27756999     5.90219899    -0.26749947    -0.00195790    -3.37782917
Ti      4.30032098     2.16243499     1.46987898     0.04321383    -0.60330367    -0.97214886
Ti      0.75264499     3.49154399     7.75818500     0.96181457    -0.11369320     1.76001127
Ti      2.01947099     0.14226602     1.50622298    -0.68525478     0.89583927    -2.45279322
Ti      3.26359099     5.10575098     8.00293800    -0.80586091     0.97117442     0.64296603
Ti      0.77510201     0.53825200     5.97745800     0.44225279     0.81370252    -4.03250170
Ti      4.45531202     4.95206902     3.28762199     1.68183351    -0.04795109     3.25951698
O       1.77523902     1.89055002     4.75017699     0.27551952    -0.21350423     0.66235396
O       3.63790399     3.58619797     4.47362499    -0.14772124    -0.41321166     0.78092994
O       4.82065600     2.93197302     9.11571500    -0.26339753     0.55891047     0.78154109
O       3.49637998     0.65295303     0.23620901     0.57419877    -0.01103492     0.38359845
O       1.60944302     4.83259402     8.96195403    -0.18576459    -0.74133236     0.99567190
O       4.39255499     0.84373402     4.80890101    -0.27470910    -0.41415602    -0.50711249
O       1.03266501     4.65426298     4.33719903    -0.11205489     0.93783259     0.77232085
O       0.23707802     3.35778798     2.47057798    -0.64290304     0.15493371    -0.86390949
O       5.14808601     2.06744202     6.81486300    -0.05290972    -0.36806795    -0.29848899
O       2.49248898     1.88766802     2.08352599     0.50539191     0.02585322     0.07709533
O       2.63208801     3.56035100     7.02360999    -1.02596670    -0.50737937     0.67108106
O       0.18990901     0.68888601     2.05756201     0.47486699    -0.41196776    -0.19567156
O       4.96800101     4.83034999     6.99948601    -0.85032172    -0.02901157     0.32016108
O       2.47712300     0.87739901     6.93145102     0.00036407    -0.32387633     0.01375412
O       2.95263601     4.29006298     2.29736001     0.39829437     0.84030779    -1.34640341
