# total energy = -19517.39885211 eV

CRYSTAL
PRIMVEC
        5.17600016     0.00000000     0.00000000
        0.00000000     5.50899976     0.00000000
        0.00000000     0.00000000     9.26300011
PRIMCOORD
23 1
Ti      1.91577198     3.20258098     3.36829998    -0.89295012     0.71477029     3.67625260
Ti      3.36052002     2.26786801     5.84522099    -0.21102106    -0.05783750    -2.87047782
Ti      4.35483402     2.02425300     1.57842397     1.20697937     0.19845247    -1.95153256
Ti      0.89765797     3.35162100     7.78174599    -0.90298102     0.06260227     2.05801329
Ti      2.00897402     0.27843000     1.28679799    -0.46597534     0.09697562    -0.92901268
Ti      3.22335299     5.18717199     7.86592899    -0.46715085     0.92951353     1.17678844
Ti      0.66809300     0.59960101     5.92933398    -0.16668494    -0.95957976    -3.69643268
Ti      4.45895498     4.86993901     3.32839102     1.24873539     0.81953789     3.72182439
O       1.60018898     2.01300598     4.90507400     0.82223678     0.63967528    -1.20158468
O       3.59249000     3.66205400     4.52398198    -0.81125688    -0.71423267     0.02054158
O       0.09101298     2.58085899     0.06049300     0.63720599     0.51336387    -0.15931075
O       3.35426800     0.92332000     0.11083602    -0.13436564     0.02831968     0.43605694
O       1.79716802     4.59797001     9.04018299     0.21739842    -0.01629489     0.47177292
O       4.28792998     0.81791398     4.75034702    -0.68526455     0.05905209     0.22092649
O       1.02488801     4.85029199     4.32343401     0.05655658    -0.27529892     1.03814782
O       0.14773301     3.26943099     2.72072498    -0.01180214    -0.58349357    -1.50435096
O       5.04561401     2.11871601     6.74346101    -0.64341778     0.55669392     0.69588347
O       2.63972800     1.81650997     2.38020900    -0.21940003    -0.13563166    -0.55279047
O       2.59762301     3.63499902     6.92771402    -0.14899934    -0.39609273     0.61063620
O       0.19455900     0.62629302     2.15974799     0.81162969    -0.33116747    -1.37149790
O       5.04113701     4.88988000     7.42659301    -0.09507892    -0.02795330    -0.89621799
O       2.32354200     0.94276700     6.85104502     0.65033405    -0.53684140     1.17102274
O       2.88846899     4.51222699     2.22424898     0.20527258    -0.58453255    -0.16465865
