# total energy = -19919.06780956 eV

CRYSTAL
PRIMVEC
        6.37412981     0.00000000     0.00000000
        0.67674321     6.75016273     0.00000000
        0.00000000     0.00000000    11.42261086
PRIMCOORD
24 1
Ti      2.71135294     4.00014022     4.23770726    -0.09535711    -1.34811216     0.70428918
Ti      4.33952027     2.75002256     7.18490399     0.09535711     1.34811216    -0.70428918
Ti      5.77298143     2.75002486     1.47355274     0.15396697     0.37127360    -0.50748736
Ti      1.27789180     4.00013825     9.94905871    -0.15396697    -0.37127360     0.50748736
Ti      2.37298147     0.62505891     1.47359856    -0.09535711    -1.34811216    -0.70428918
Ti      4.67789175     6.12510413     9.94901289     0.09535711     1.34811216     0.70428918
Ti      0.93952024     0.62505643     7.18485823    -0.15396697    -0.37127360    -0.50748736
Ti      6.11135292     6.12510655     4.23775308     0.15396697     0.37127360     0.50748736
O       2.25574519     2.37684706     5.82887104     1.61185705     1.64788105    -0.27635281
O       4.79512802     4.37331579     5.59374021    -1.61185705    -1.64788105     0.27635281
O       1.40794540     2.37687436     0.11760219    -1.18074691     0.89240170     0.34925415
O       5.64292788     4.37328855    11.30500880     1.18074691    -0.89240170    -0.34925415
O       4.45675654     0.99823422     0.11756515    -1.61185705    -1.64788105    -0.27635281
O       2.59411668     5.75192863    11.30504584     1.61185705     1.64788105     0.27635281
O       5.30455640     0.99820698     5.82890814     1.18074691    -0.89240170     0.34925415
O       1.74631675     5.75195587     5.59370318    -1.18074691     0.89240170    -0.34925415
O       0.64322044     4.10583177     3.08553224     0.47490273     0.43818942     0.86653922
O       6.40765271     2.64433108     8.33707901    -0.47490273    -0.43818942    -0.86653922
O       3.68376787     2.64426822     2.62580971     0.55204459     0.92147626     0.16233540
O       3.36710534     4.10589457     8.79680141    -0.55204459    -0.92147626    -0.16233540
O       0.30484895     0.73075020     2.62577319     0.47490273     0.43818942    -0.86653922
O       6.74602419     6.01941258     8.79683786    -0.47490273    -0.43818942     0.86653922
O       3.02873386     0.73081307     8.33711546    -0.55204459    -0.92147626     0.16233540
O       4.02213936     6.01934978     3.08549579     0.55204459     0.92147626    -0.16233540
