# total energy = -19076.03798234 eV

CRYSTAL
PRIMVEC
        7.60600008     0.00000000     0.00000000
        0.00000000     7.60600008     0.00000000
       -1.89786986    -1.89786986     4.85670466
PRIMCOORD
22 1
Ti      3.83156101     6.72982602     1.17055902    -0.15409527    -0.26319390    -0.23937982
Ti      3.81311802     2.94269902     1.19069702    -0.29491773    -0.51830939    -0.20969694
Ti     -0.04392901     6.56077802     1.10125601    -0.06027876    -0.24556693     0.40564901
Ti     -0.01249102     2.74590699     1.19602298     0.40762387     0.82076071    -0.33688920
Ti      5.77090223     2.73973324     3.55715181    -0.99563976     1.13880320     0.34191674
Ti      6.10504925    -0.92614279     3.76169580    -1.08971723    -1.37344422    -0.96181791
Ti      1.93064123     2.94154922     3.63418483     0.82394322    -1.87722302    -0.32315025
Ti      1.46122323    -0.95421877     3.77778184     0.38295130     1.45904142    -0.44141024
O       3.64701399     4.75037300     0.83461598     0.28480120     1.69792502    -0.55443366
O       4.04471599     1.04515798     0.71062499    -0.65823505    -1.21498296     1.23049032
O      -0.01002002     4.73655603     0.81410099     0.27729795    -1.53772004    -0.56272445
O      -0.24751102     0.85371600     0.73001102     0.57150142     1.15798030     0.67386531
O       5.75187323     4.66326820     4.07762584     0.61390690     0.99574312    -1.15507212
O       5.48053421     0.85776822     3.87109780     1.17699156     0.27081003     0.76155641
O       2.08635523     4.77666120     4.13043381    -0.75663866     0.86941166    -0.07022508
O       1.78052523     1.01251923     3.99309183     0.08538097    -0.55294602     0.30406700
O       3.84581821     2.95130725     3.19601082    -0.07317234    -0.35459794     0.04525400
O       0.13714020     2.90443823     3.15646879    -2.32578916    -0.10876876    -0.10044738
O       5.58700800     6.52971103     1.78625802     0.77656677     0.19966912     0.82438005
O       5.70716198     2.96786902     1.55501201     0.90403903    -0.39704918     0.86764299
O       1.85347401     6.69928201     1.95602099     0.48338506    -0.06031502    -0.79166224
O       1.92424602     2.77124998     1.54069999    -0.37990506    -0.10602745     0.29208694
