# total energy = -19961.46557126 eV

CRYSTAL
PRIMVEC
        7.60600008     0.00000000     0.00000000
        0.00000000     7.60600008     0.00000000
       -1.89786986    -1.89786986     4.85670466
PRIMCOORD
24 1
Ti      3.78414599     6.63664399     1.25355402     0.55425857     0.40748401     0.83735770
Ti      3.77933201     2.89580100     1.14348197     0.78134260    -0.36651449     1.54094266
Ti      0.04386901     6.61257902     1.19889498    -0.63240085    -0.99821009    -0.08125435
Ti      0.07686098     2.83868801     1.13871700    -0.49264772     0.83685917    -0.04141097
Ti      5.74056524     2.79474624     3.54711781    -1.79225266     0.72298985     0.12367294
Ti      5.71899523    -1.03997977     3.67172879    -1.31304076    -0.29047306    -0.55395261
Ti      1.81392822     2.91978522     3.67884183     1.88487848     0.58921813    -0.71231951
Ti      1.79880820    -0.91190179     3.71420082     1.04477253    -0.61923937    -0.52621708
O       3.71575602     4.76005202     0.78154400     0.04902967     0.79518697    -0.21032737
O       3.74292302     0.94210299     0.80372298     0.08735480     0.59742432     0.16192659
O       0.03457602     4.67931000     0.81050100     0.47560824     0.34552760    -0.72418310
O       0.02963303     0.82784600     0.80950900     0.14219851     1.44069171     0.25290331
O       5.66965824     4.67923221     4.06584979     0.12664179     0.03612093     0.36790314
O       5.59847924     0.91723325     4.06623583     0.88501569    -0.07132371    -0.33218125
O       2.02116721     4.82053624     4.11014679    -0.33045501    -0.77708717     0.06703768
O       1.86359923     1.03422624     4.01387379    -0.24065997    -0.83271326     0.06779282
O       3.84919621     2.91473322     3.20158782    -0.24441430    -0.35420173    -0.15959537
O       3.78409725    -0.92290476     3.24168480     0.32517037    -0.00456962    -0.15359956
O       0.07267424     3.09149424     3.10723679    -0.90761312    -0.86149086     0.75885135
O      -0.07016478    -1.11256379     3.24560283     1.86445260     0.58344780     0.58853910
O       5.79222903     6.56438701     1.71331702    -1.53734825     0.17611189    -0.68970973
O       5.69594702     3.02259298     1.59757098     0.59783287    -1.09511603     0.09080266
O       1.91654400     6.58639501     1.73615002    -0.43226714     0.20316813    -0.62549641
O       1.96594598     2.90793101     1.60432900    -0.89545720    -0.46329059    -0.04748264
