# total energy = -19928.42317094 eV

CRYSTAL
PRIMVEC
        5.35690379     0.00000000     0.00000000
        0.00002263     4.21405286     0.00000000
        0.00000000     0.00000000     8.52901607
PRIMCOORD
24 1
Ti      1.94163340     2.49724386     3.16420413    -1.00048860     2.88574967    -5.47272881
Ti      3.41529307     1.71680915     5.36481199     1.00048860    -2.88574967     5.47272881
Ti      4.61999278     1.71681061     1.10026985    -0.99285602    -2.88647832     5.47419254
Ti      0.73693369     2.49724258     7.42874636     0.99285602     2.88647832    -5.47419254
Ti      1.94162218     0.39021752     1.10030405    -0.99995073     2.88611836     5.47134272
Ti      3.41530429     3.82383563     7.42871217     0.99995073    -2.88611836    -5.47134272
Ti      0.73692247     0.39021591     5.36477779     0.99324092     2.88635413     5.47609824
Ti      4.62000400     3.82383724     3.16423833    -0.99324092    -2.88635413    -5.47609824
O       1.69550187     1.48383968     4.35229162     0.90114345    -3.55863538     3.91913940
O       3.66142465     2.73021333     4.17672450    -0.90114345     3.55863538    -3.91913940
O       0.98299733     1.48385668     0.08781102    -0.90116788    -3.56038425     3.92042110
O       4.37392924     2.73019638     8.44120487     0.90116788     3.56038425    -3.92042110
O       3.66141343     0.62318685     0.08778335    -0.90092491     3.55902207     3.91922271
O       1.69551309     3.59086616     8.44123254     0.90092491    -3.55902207    -3.91922271
O       4.37391801     0.62316990     4.35231929     0.90165947     3.55988545     3.92044604
O       0.98300846     3.59088316     4.17669683    -0.90165947    -3.55988545    -3.92044604
O       0.19464248     2.56322583     2.30390002     3.22587692    -1.13682705     1.29108405
O       5.16228404     1.65082718     6.22511610    -3.22587692     1.13682705    -1.29108405
O       2.87310015     1.65078788     1.96063516     3.22669247     1.13659488    -1.29010625
O       2.48382637     2.56326518     6.56838082    -3.22669247    -1.13659488     1.29010625
O       0.19463126     0.45619940     1.96060792     3.22667859    -1.13653215    -1.29071329
O       5.16229526     3.75785366     6.56840806    -3.22667859     1.13653215     1.29071329
O       2.48381515     0.45623870     6.22514329    -3.22617696    -1.13668821    -1.29104394
O       2.87311137     3.75781431     2.30387278     3.22617696     1.13668821     1.29104394
