# total energy = -19074.06376590 eV

CRYSTAL
PRIMVEC
        5.93400000     0.00000000     0.00000000
        0.00000000     9.29699974     0.00000000
        0.00000000     0.00000000     4.64899994
PRIMCOORD
22 1
Ti      4.33774402     6.86116098     2.37211000     0.93921173    -0.04322103     0.28185523
Ti      4.36739901     2.46629101     2.06274700     0.31300724     0.17407583     0.16353559
Ti      1.54351098     7.23995098     2.59790998    -0.60207468     0.07656285     0.28951327
Ti      1.57502099     2.33189401     2.17474302    -0.60064489     0.32054906     0.62899645
Ti      2.98273101     4.53998102     4.43957699    -0.37528633    -0.28244556     0.09008146
Ti      3.06851101     0.05241199     0.03863798     0.08765074     0.20156531    -0.57856450
Ti      5.79735300     4.65667598     4.44286498     0.31719017    -0.43254147     0.07736915
Ti      0.03155299     9.12294800     0.34210801    -0.15206384    -0.56848655    -0.11620954
O       4.31504200     5.39001801     0.82507999     0.58374656     0.98480795     1.57589707
O       4.54135899     0.80094300     1.04333698     0.06862843     0.96356446    -0.15181881
O       1.49770100     0.62017499     1.29808402    -0.58109370     1.32295031    -0.60543023
O       4.37674100     8.26503198     3.88628201     0.63817041     1.16760137     0.21628642
O       4.40387001     4.03082598     3.32555400     0.39742713    -1.27626189    -0.57416637
O       1.58104700     8.26209399     4.07645000    -0.42503951     1.02584894    -0.48029819
O       1.50519600     3.86788400     3.46015102    -0.80418789    -0.49451280     0.09338636
O       2.88483899     6.15552302     3.36084202    -0.06514741    -0.77712547    -0.46108330
O       3.13649098     1.54212802     3.16790701    -0.28216325    -0.67167472     1.47536768
O       0.02200599     6.28859199     3.47457798     0.16982117    -1.49984510    -0.06543666
O       3.03232900     7.97744198     1.63666999     0.06802782    -0.64536770    -0.51362381
O       2.87840298     3.01278802     1.03287398     0.29428138     0.80763497    -0.35728166
O       0.01587802     7.79905400     1.59733402    -0.47344157    -0.50255984    -0.68808634
O       0.01362600     3.14351602     1.22015103     0.48398027     0.14888107    -0.30028979
