# total energy = -4922.77911379 eV

CRYSTAL
PRIMVEC
        5.73514772     0.00000000     0.00000000
       -0.00000744     2.17540056     0.00000000
       -2.86760825    -1.08780354     6.32954162
PRIMCOORD
6 1
Ti     -0.00024505     1.63161198     1.58238513    -0.03872957    -0.02504538    70.67223885
Ti      2.86777715    -0.54401524     4.74715600     0.03872957     0.02504538   -70.67223885
O       0.00006089     0.54383283     1.03103052     0.03705604     0.02608385   -65.71204474
O       2.86747104     0.54376386     5.29851066    -0.03705604    -0.02608385    65.71204474
O      -0.00002486    -0.54389275     4.19580134    -0.00148353     0.00001286    -0.87246253
O       2.86755668     1.63148938     2.13373985     0.00148353    -0.00001286     0.87246253
