# total energy = -4986.11306718 eV

CRYSTAL
PRIMVEC
        3.04069502     0.00000000     0.00000000
        1.83242824     4.39782746     0.00000000
       -0.00001168    -0.00006330     4.86645133
PRIMCOORD
6 1
Ti      2.43655570     2.19888193     2.43322561     0.00000000     0.00000000     0.00000000
Ti      0.00000000     0.00000000     0.00000000     0.00000000     0.00000000     0.00000000
O       1.87745843     0.85705936     0.94839967    -2.69079441     1.43178026     1.45273553
O       2.99565298     3.54070451     3.91805151     2.69079441    -1.43178026    -1.45273553
O       0.55909227     1.34179703     3.38162634     2.69055016    -1.43188979     1.45261392
O       1.27332426     3.05596702     1.48482488    -2.69055016     1.43188979    -1.45261392
