# total energy = -19516.36016482 eV

CRYSTAL
PRIMVEC
        5.17600016     0.00000000     0.00000000
        0.00000000     5.50899976     0.00000000
        0.00000000     0.00000000     9.26300011
PRIMCOORD
23 1
Ti      1.88929100     3.22942699     3.42895999    -0.60235570    -0.92508249     4.69074626
Ti      3.38311102     2.25792900     5.95614099     0.06002268     0.47418539    -3.25668748
Ti      4.27879601     2.15363001     1.47813801     1.31104481    -0.07917535    -2.03505153
Ti      0.85048500     3.42078299     7.79482598    -1.49471035     0.77675421     1.83764062
Ti      2.04927298     0.30479398     1.43436600    -2.10935336     0.92023570    -2.99034090
Ti      3.26787299     5.16150398     7.96784000    -0.41185797     0.15849520     0.89325582
Ti      0.75078800     0.59981299     5.93794999    -0.99578811    -0.27980092    -3.59897858
Ti      4.45932700     4.84614498     3.27855702     2.07323757     0.44597266     3.76831098
O       1.77211200     1.93493900     4.95249400    -0.63726872     0.12271134    -1.81061985
O       3.58923101     3.46479101     4.53005201     0.52670456     0.86577612    -0.74799512
O       4.76807499     2.93101097     9.09558599     0.97041208     0.99264699     0.74824066
O       3.25434103     1.11508198     0.14059599    -0.85148463    -1.95798680    -0.77635491
O       1.80006098     4.61628102     9.07820400     0.22647725     0.33270216     0.78531136
O       4.46034302     0.69135600     4.74578101    -0.82418259     0.10172368    -0.83992675
O       1.00389502     4.58992598     4.36005700     0.09026761     0.82128342     0.73256567
O       0.25617301     3.22917097     2.56000300    -1.34926505     0.15601948    -1.42672136
O       5.14578800     2.19503200     6.66078701     0.29800588    -1.07898467     0.66392465
O       2.70007802     1.82108699     2.37959002    -0.75407218     0.13810583     0.41479648
O       2.60559602     3.48485302     7.07961001     0.11534230    -0.07730436     0.52663977
O       0.07757400     0.61847797     1.82126998     1.36629038    -0.96793302     0.43514317
O       4.98177899     4.79214901     7.10423601     0.27078483     0.66131986     0.49629766
O       2.51221301     0.67765999     6.63233802     0.92018428    -1.28343218     2.30564610
O       2.75306798     4.51830100     2.39496500     1.80156494    -0.31823224    -0.81584219
