# total energy = -19072.61645405 eV

CRYSTAL
PRIMVEC
        5.93400000     0.00000000     0.00000000
        0.00000000     9.29699974     0.00000000
        0.00000000     0.00000000     4.64899994
PRIMCOORD
22 1
Ti      4.42310000     6.92472502     2.48033701    -0.58219927     0.50203045    -0.80524847
Ti      4.29883399     2.42750099     2.16224603     0.21479749     0.13556018     0.87302817
Ti      1.53574302     7.15158902     2.64395100    -0.44991648     1.36117800    -0.44132745
Ti      1.66774899     2.41250702     1.99028099    -1.34319595    -0.61057861     0.28581088
Ti      2.89806699     4.59221399     4.36746198     0.31987338    -0.26745088     0.66148390
Ti      3.11675902     0.02316902     0.21266401    -2.13527266     0.69359313    -0.94652730
Ti      5.74833298     4.63368698     4.46534099     0.64084204    -0.91942580     1.49344408
Ti      5.87596402     9.14984402     0.37359797     1.86698848    -0.10046718     0.40996435
O       4.30558402     5.42920502     0.69712001     1.33586882     0.57632790     2.28384031
O       4.44758900     0.69154598     1.37033000     1.02348224     0.74394435    -0.74615318
O       1.60428503     0.53818099     1.35241602    -1.46354497     2.06786525    -0.53676066
O       4.48918101     8.40357699     3.92750502     0.82248027     0.02868658    -0.99092898
O       4.46353300     4.19254398     3.29325598    -0.75890355    -3.15306505    -1.78579944
O       1.42958901     8.38232798     3.94843398    -0.17544006     0.80346078    -0.49705356
O       1.67979999     3.86005599     3.21625799    -1.58231018    -0.03295487     0.17523694
O       2.91480100     6.28721799     3.50439500    -0.18666936    -0.33995061    -0.70212920
O       3.04950000     1.53959999     3.36647601     0.34765853     0.17281162    -0.43872112
O       0.02258798     6.07338899     3.19151102     1.22930247     0.10193656     0.13417410
O       3.04713199     7.87447901     1.39981401    -0.34751609    -2.41846641     1.70858533
O       3.03751700     2.91603801     0.88214700     0.61547913     1.53389038    -0.40142957
O       5.88015601     7.85202300     1.57000699     0.29138503    -1.09557523    -0.01067548
O       5.92049201     2.98441602     1.01191697     0.31681145     0.21664972     0.27718636
