# total energy = -19516.99763422 eV

CRYSTAL
PRIMVEC
        5.93400000     0.00000000     0.00000000
        0.00000000     9.29699974     0.00000000
        0.00000000     0.00000000     4.64899994
PRIMCOORD
23 1
Ti      4.53427098     7.10303298     2.27974899     1.11107205    -1.13054353     0.90112777
Ti      4.39284000     2.23237201     2.32728302    -0.86309651     0.35603776    -0.57035163
Ti      1.45744702     7.19547501     2.11947601     0.43499302    -1.28021547     1.03560294
Ti      1.40135502     2.24379002     2.42762799     1.39912801     0.56490526    -0.78732093
Ti      3.07614101     4.54688699     0.08067498    -0.54156914    -1.35409178     0.69391529
Ti      2.84004699     9.18424901     4.59181001     2.85098628     2.23157542     1.33877186
Ti      0.07930298     4.69181800     0.05372202     0.30664453     0.43388822    -1.11360381
Ti      5.85746002     0.14362802     4.60460102    -0.29792669    -0.54807378     1.74661222
O       4.41300203     5.54750698     0.92962600     0.03757592     0.22130110     0.18539615
O       4.36194002     0.88843098     0.74142501     1.58796558     1.01643228     2.21379932
O       1.49512401     5.69114299     0.99642600     0.32870332    -0.88374582    -0.79969874
O       1.63002299     0.84565102     1.02437100    -1.41770347    -0.34184038    -0.07584346
O       4.58039402     8.36017001     3.72679698    -0.77155209    -0.81747741    -0.17836623
O       4.44549600     3.76469798     3.67948600    -0.29260810     0.14842290     0.38064759
O       1.56113702     8.40013601     3.79666902    -3.06702305    -2.53633970    -2.41226953
O       1.46501002     3.68730798     3.85101901     0.18055502     0.33118598    -0.37530535
O       2.91214401     1.36157799     3.44987101     0.57759314     1.48241481    -2.57622087
O       0.05386702     5.97956698     3.23623703    -0.31270180     0.75262440    -0.20055152
O       5.90621799     1.26240900     3.19218101    -0.17045032     0.90518677    -0.58173545
O       3.07210900     7.86033997     1.32465898    -0.31704259    -1.20559663     1.72730348
O       2.92456702     3.13217099     1.42682702     0.57371077     0.53905178     0.20392841
O       5.92383498     8.02723798     1.51308403    -0.60412436     0.44214815    -1.03102252
O       0.03784797     3.04442001     1.37941602    -0.73312926     0.67275022     0.27518476
