# total energy = -4985.31953144 eV

CRYSTAL
PRIMVEC
        2.95346187     0.00000000     0.00000000
        0.00000000     3.78624438     0.00000000
        0.00000000    -0.00005560     4.24943259
PRIMCOORD
6 1
Ti      1.47673094     1.89309434     2.12471639     0.00000000     0.00000000     0.00000000
Ti      0.00000000     0.00000000     0.00000000     0.00000000     0.00000000     0.00000000
O       1.47673094     0.73787242     0.82815188     0.00000000    -0.28055065    -0.55132083
O       1.47673094     3.04831627     3.42128091     0.00000000     0.28055065     0.55132083
O       0.00000000     1.15519943     2.95286903     0.00000000     0.28092783    -0.55208316
O       0.00000000     2.63098926     1.29656375     0.00000000    -0.28092783     0.55208316
