# total energy = -19516.59964334 eV

CRYSTAL
PRIMVEC
        5.93400000     0.00000000     0.00000000
        0.00000000     9.29699974     0.00000000
        0.00000000     0.00000000     4.64899994
PRIMCOORD
23 1
Ti      4.45765802     7.01852798     2.26444301     0.14059183     0.69886492     0.00603875
Ti      4.44276200     2.27338002     2.25067599     0.84867159    -1.39274010     0.77754405
Ti      1.40560500     7.25140502     2.29580602    -0.30730582    -0.55026436     0.17273757
Ti      1.44619099     2.30079902     2.38317398    -0.56951807    -0.89393048    -0.37636233
Ti      3.11264001     4.38050102     0.13446801    -0.51925890     2.06353062    -1.37905566
Ti      2.89334303     9.27765900     4.54734600     1.66093352    -0.08566482     0.39456601
Ti      0.09709000     4.61623398     0.09266899     0.04081576     0.10087161    -0.26800264
Ti      0.01330600     0.09121502     0.05732201    -1.72271021     0.54810258    -0.09228335
O       4.42304301     5.54852999     0.92327402    -0.04675553    -0.11949849    -0.42514955
O       4.30815100     0.89931001     0.86646700     0.89087626     0.30908220     0.64189697
O       1.72798402     5.53859802     0.74871098    -1.18993989     0.55230119     0.45213020
O       1.59832702     0.92411398     0.98009199    -0.99512605    -0.34993730    -0.96563497
O       4.49998501     8.49759898     3.70853301    -0.48245895    -1.13094540     0.26374617
O       4.59923897     3.76618698     3.75561799    -1.29891460    -0.14912378    -1.09715595
O       1.38211700     8.16648298     3.97671898     0.51244342     0.39736645    -1.02665344
O       1.24515799     3.75366501     3.53779598     1.77029826     0.63292304     0.80579483
O       2.90375702     1.35558701     3.21714198    -0.09591375     0.71290469     0.10107653
O       5.85148301     6.22506802     3.04559298     1.29888092    -2.24936283     1.94532823
O       5.92159699     1.35512800     3.25279800     0.34174627     0.19953028    -0.16487154
O       2.98593100     8.04795802     1.52609702    -0.83924824    -1.31811638     0.40984994
O       3.02585001     3.24719099     1.42493500    -0.82667425    -1.22083737     1.40910030
O       5.85062802     7.95491099     1.51886698     0.42786284     1.54282625    -1.79495283
O       5.83760402     2.96596303     1.21711498     0.96070385     1.70211823     0.21031272
