# total energy = -39028.88801539 eV

CRYSTAL
PRIMVEC
        5.93200024     0.00000000     0.00000000
        0.00000000     9.29399984     0.00000000
        0.00000000     0.00000000     9.29399984
PRIMCOORD
46 1
Ti      4.50322299     7.30205099     6.80627599    -2.79769706     1.51939141     0.62027218
Ti      4.48707298     6.74468500     2.50149701    -1.20195286    -0.51233672    -0.91429542
Ti      4.34665802     2.07786400     7.21802701    -0.86299367    -0.12662431    -1.04956429
Ti      4.21047801     2.76773402     2.02160198     0.92570290    -0.10227055     1.74472091
Ti      1.40813098     6.79502399     7.29882301     3.06226805    -0.52233446     0.00294906
Ti      1.46292199     7.22780700     2.03344598    -0.36009393    -1.65426896     1.12961768
Ti      1.35739002     2.50778300     6.74449698     0.64906881     0.79992140    -0.75348469
Ti      1.38612800     2.05512600     2.93406099     0.89653372     0.58783590    -0.92744559
Ti      2.96038698     4.86439302     4.70230402    -0.12105530    -1.04608868     0.73041700
Ti      3.10434002     4.43361798     8.93170700    -0.15393689     1.49212947    -0.26466586
Ti      3.09200400     9.02962199     4.44815400     0.37908205     0.23104764     0.76746404
Ti      2.93974499     0.04455699     0.29083100    -0.20218417    -0.05261302    -1.75542802
Ti      5.91598702     4.73899998     4.63435602     0.36841068    -0.88292744     0.61257790
Ti      0.15274400     4.87926301     9.09739102    -1.66837403     0.33382342     0.63065482
Ti      0.09217199     8.97072498     4.91774198    -0.43014855     2.72973558    -1.67514889
Ti      5.91750401     9.25238201     0.01739998     0.13946080     1.30169808    -1.75168526
O       4.53356400     5.84872499     5.52380101     0.72324799    -1.38884719    -0.33501795
O       4.45492599     5.04467001     0.88294499    -0.68384710     0.63010794     1.96900964
O       4.45677800     0.11808998     6.05723401    -0.77732139     1.53525152    -2.62499343
O       4.46973501     1.12924599     0.40693598    -0.37000168     1.30601727     1.88810059
O       1.45328202     5.49674698     5.75651898    -0.81711334     0.43749111    -1.16049947
O       1.42755702     5.65125599     0.80484499     1.18199621    -0.22416557     0.41725009
O       1.27412700     1.24605102     4.63391702    -0.74339207    -1.16113582     2.31906495
O       1.45164401     0.99082698     1.22523499    -0.24032881    -1.50123427    -1.04224282
O       4.21684703     8.38490301     8.35489099     0.15666020     0.98090527     1.12373859
O       4.75431701     8.23839500     3.69395503    -0.55477896     0.67988066     0.65297637
O       4.67991998     3.62734902     8.37717999    -0.47488730    -1.78670370    -0.98831905
O       4.29990499     3.95205001     3.57340099     0.35565646    -0.01535926     0.44997022
O       1.51550199     8.40233300     8.45808801     0.74171597     0.04070623     0.87384578
O       1.49914603     8.33317699     3.72089899    -0.54818922    -0.62270625    -1.21424094
O       1.39564700     4.32509500     7.76789202    -0.12012147    -2.63089283     1.94153225
O       1.65718502     3.65077601     4.04878202    -1.02900138     0.79068651    -1.55717250
O       3.16465998     6.00417801     8.10451802    -0.50141672     1.52198873    -1.77700421
O       2.92035901     6.16487702     3.42119998    -0.01912053     0.51594218    -1.61296006
O       2.64011801     1.51292898     7.85418099     0.81735348     0.20232121     0.79035175
O       3.32693298     1.34247601     3.06902998     0.47157983     0.77694370    -0.39121277
O       5.64782301     6.41789000     8.09202399     1.39812682    -1.59216394    -0.01050836
O       0.10908799     6.05458801     3.01148000     1.30408715    -0.70209371     1.14738709
O       0.05613999     1.22376700     7.59821800     0.99865232     1.19290721     0.10335659
O       2.75625500     7.73341401     5.89051100     0.62473588    -0.02671840     0.71722749
O       3.13620099     7.92801698     1.70248498    -0.03528943     1.21321430    -1.99930650
O       3.04641702     3.09489902     6.05314601     0.40463188    -0.22983203     0.47261110
O       0.34071299     7.89727797     6.24271301    -0.14732709    -1.52897391     0.68301844
O       5.84584802     7.84244902     1.10575502    -0.50820598    -1.25351430     2.46816585
O       5.75648802     3.26039000     5.91747200    -0.35786710    -0.56202228     0.18980045
O       0.07559398     3.02202099     1.98979499     0.12767512    -0.69411969    -0.64088472
