# total energy = -39035.07092649 eV

CRYSTAL
PRIMVEC
        5.93200024     0.00000000     0.00000000
        0.00000000     9.29399984     0.00000000
        0.00000000     0.00000000     9.29399984
PRIMCOORD
46 1
Ti      4.35888698     7.10902999     6.91838801     0.96034904    -0.84011007    -0.98755235
Ti      4.41082600     6.80670801     2.57416601    -0.07076064    -0.25005016    -0.53065558
Ti      4.39722101     2.24202299     7.15400101     0.43112300    -0.32432550    -0.39109579
Ti      4.50058800     2.56776799     2.01686701    -0.35874230    -0.98758012     0.67444689
Ti      1.47436698     6.86482300     7.05119499    -0.77261859    -0.28739725    -0.15574463
Ti      1.43558999     7.17577401     2.14730698     0.22439465    -1.07460196     0.18670767
Ti      1.46770999     2.47890998     6.88463201    -0.88358513    -0.32325258     0.09163595
Ti      1.52238903     2.12183699     2.61575400     0.09922148    -0.19328661    -0.74994788
Ti      2.93396601     4.67609700     4.54313200     0.05155012     0.22658961     0.91894269
Ti      2.91406503     4.71017903     9.12574899    -0.38534577     0.89990701     0.02567299
Ti      3.03685299     9.26838099     4.67261099    -0.14695480     0.22271238    -0.41629827
Ti      3.00455402     9.16706498     9.29199399    -1.32071268     1.51144618     0.20202168
Ti      5.91795699     4.73007599     4.63168198    -0.39852242     0.19195709     0.87538073
Ti      5.88708997     4.67915702     9.26547602     0.40354328     0.84357952     0.07457462
Ti      0.07577501     9.18305000     4.74387502    -0.24842805    -1.06107230     1.34228835
Ti      5.92323299     9.23305899     0.03245402     1.25523000     1.54669447     0.05688619
O       4.44003002     5.77000601     5.45794903    -0.07618953    -1.04917554    -0.35568269
O       4.40294300     5.43515498     0.92101300     0.39286008    -0.46768075     0.63855813
O       4.41525801     0.61452603     5.68992901     0.44492854     1.48186537     0.08220385
O       4.32770902     1.14550100     0.66847702     0.95574136    -0.46392077     1.06196139
O       1.54692798     5.61310602     5.60511100    -0.36149158    -0.88352573    -0.45460386
O       1.55031202     5.71724302     0.68280598    -0.45246599    -0.90194332     0.95515875
O       1.49581898     0.92585301     5.42852598     0.01770514     0.68156730    -0.33829560
O       1.49703498     0.71172298     1.04676599    -0.15339876     0.83826607     0.53936134
O       4.49866000     8.42056501     8.26947501    -0.18286567     0.52029454     0.87354651
O       4.55180199     8.15738198     3.89280401    -0.64033245     0.41959262    -0.58288859
O       4.41683300     3.61158001     8.52498401     0.10896853    -0.21066316     0.42013230
O       4.44093100     3.95099298     3.55346101     0.02417635    -0.92618421    -0.09267930
O       1.43975202     8.33775898     8.49836200     0.20917603    -0.47183720    -0.47044032
O       1.38971699     8.42119700     3.69489998     0.56273396     0.06214333    -0.77202749
O       1.51283600     4.04145202     7.99287803    -0.07464044    -0.89865694     2.09252625
O       1.40311099     3.57147399     4.08173903     0.76658858    -0.83722580    -1.74563494
O       3.08626602     6.15249300     7.97746198     0.45287788     0.35001854    -0.95737659
O       2.74375002     6.03192600     3.19107101     1.05823277    -0.19916210     0.23106050
O       2.81444100     1.34904299     7.95456602     0.46279977     0.54597293    -0.94408423
O       3.20535599     1.29803401     3.10680598     0.07430182     1.06172150     0.29050803
O       5.86368499     6.02781900     7.95302600    -0.65016898     0.50372506    -0.55834817
O       0.18031799     5.98177201     3.06992101    -0.78607652     0.08252704     0.54529030
O       0.13868900     1.47595399     7.85890998    -0.80965380    -0.52015879     0.46424859
O       2.79029100     7.89777201     6.07266699     0.84053739    -0.15635938     0.33560339
O       3.10182902     7.81770501     1.54388600     0.30580867     0.83135649    -1.03391064
O       3.03594502     3.23305498     6.16828101     1.04721970    -0.18092217    -0.92005110
O       0.16488798     7.76507299     6.05409101    -0.97112222     1.09017411     0.10674864
O       5.82614500     7.93007400     1.42382098    -0.90814226    -0.37044185     0.17080102
O       5.77561699     3.27955299     6.13458998    -0.11968104    -0.17385009    -0.60452031
O       0.32920101     3.16838999     1.48744899    -0.37816879     0.14127317    -0.19442844
