# total energy = -19922.34403008 eV

CRYSTAL
PRIMVEC
        6.27902343     0.00000000     0.00000000
        2.26950104     6.28561188     0.00000000
        0.00000000     0.00000000    11.41955753
PRIMCOORD
24 1
Ti      3.62074830     3.72484768     4.23657442    -0.07052204    -2.25982928     0.71616485
Ti      4.92777640     2.56076403     7.18298324     0.07052204     2.25982928    -0.71616485
Ti      6.33984994     2.56076617     1.47315882    -0.37254990    -0.91939341     0.11444781
Ti      2.20867479     3.72484573     9.94639896     0.37254990     0.91939341    -0.11444781
Ti      2.48599794     0.58204191     1.47320460    -0.07052204    -2.25982928    -0.71616485
Ti      6.06252678     5.70356993     9.94635318     0.07052204     2.25982928     0.71616485
Ti      1.07392430     0.58203959     7.18293746     0.37254990     0.91939341     0.11444781
Ti      7.47460043     5.70357231     4.23662020    -0.37254990    -0.91939341    -0.11444781
O       2.78648051     2.21327073     5.82731280     1.83529963     2.12593955    -0.78679000
O       5.76204419     4.07234099     5.59224486    -1.83529963    -2.12593955     0.78679000
O       1.95133697     2.21329608     0.11757078    -0.38276670    -0.48239287     1.36926155
O       6.59718781     4.07231569    11.30198657     0.38276670     0.48239287    -1.36926155
O       4.62729380     0.92953509     0.11753372    -1.83529963    -2.12593955    -0.78679000
O       3.92123090     5.35607663    11.30202362     1.83529963     2.12593955     0.78679000
O       5.46243741     0.92950972     5.82734986     0.38276670     0.48239287     1.36926155
O       3.08608722     5.35610200     5.59220780    -0.38276670    -0.48239287    -1.36926155
O       1.60857058     3.82326536     3.08470739     0.57676190     2.30502878     2.23393312
O       6.93995412     2.46234636     8.33485027    -0.57676190    -2.30502878    -2.23393312
O       4.25669644     2.46228781     2.62510774     0.76708917     1.90296080     1.18589709
O       4.29182826     3.82332391     8.79444973    -0.76708917    -1.90296080    -1.18589709
O       0.47382020     0.68045946     2.62507125     0.57676190     2.30502878    -2.23393312
O       8.07470450     5.60515226     8.79448622    -0.57676190    -2.30502878     2.23393312
O       3.15707788     0.68051801     8.33488663    -0.76708917    -1.90296080     1.18589709
O       5.39144682     5.60509371     3.08467096     0.76708917     1.90296080    -1.18589709
