# total energy = -19957.74856625 eV

CRYSTAL
PRIMVEC
        5.57946099     0.00000000     0.00000000
        0.00002594     4.85855507     0.00000000
        0.00000000     0.00000000     9.16988850
PRIMCOORD
24 1
Ti      2.02230162     2.87917513     3.40196335    -0.21486897     0.91826855    -1.58748067
Ti      3.55718537     1.97937973     5.76792552     0.21486897    -0.91826855     1.58748067
Ti      4.81193544     1.97938130     1.18294445    -0.21281543    -0.91842436     1.58830214
Ti      0.76755155     2.87917372     7.98694452     0.21281543     0.91842436    -1.58830214
Ti      2.02228885     0.44989770     1.18298121    -0.21483452     0.91752190     1.58714951
Ti      3.55719814     4.40865731     7.98690775     0.21483452    -0.91752190    -1.58714951
Ti      0.76753878     0.44989593     5.76788875     0.21275527     0.91737201     1.58840652
Ti      4.81194821     4.40865904     3.40200012    -0.21275527    -0.91737201    -1.58840652
O       1.76594378     1.71077976     4.67932405     0.47044366    -0.77064424     0.90557835
O       3.81354321     3.14777510     4.49056481    -0.47044366     0.77064424    -0.90557835
O       1.02383759     1.71079939     0.09440915    -0.47006674    -0.77114432     0.90612291
O       4.55564945     3.14775552     9.07547945     0.47006674     0.77114432    -0.90612291
O       3.81353044     0.71849751     0.09437939    -0.47037990     0.77062135     0.90558658
O       1.76595655     4.14005735     9.07550922     0.47037990    -0.77062135    -0.90558658
O       4.55563663     0.71847793     4.67935382     0.46979986     0.77141377     0.90615531
O       1.02385025     4.14007698     4.49053504    -0.46979986    -0.77141377    -0.90615531
O       0.20273041     2.95524863     2.47701574     0.58773049    -0.29490333     0.41424061
O       5.37675658     1.90330623     6.69287312    -0.58773049     0.29490333    -0.41424061
O       2.99246648     1.90326107     2.10795786     0.58662029     0.29478171    -0.41530351
O       2.58702051     2.95529379     7.06193085    -0.58662029    -0.29478171     0.41530351
O       0.20271759     0.52597104     2.10792856     0.58747749    -0.29506994    -0.41501169
O       5.37676940     4.33258381     7.06196015    -0.58747749     0.29506994     0.41501169
O       2.58700769     0.52601620     6.69290237    -0.58681595    -0.29503240    -0.41398299
O       2.99247930     4.33253866     2.47698644     0.58681595     0.29503240     0.41398299
