# total energy = -19959.08971284 eV

CRYSTAL
PRIMVEC
        5.93400000     0.00000000     0.00000000
        0.00000000     9.29699974     0.00000000
        0.00000000     0.00000000     4.64899994
PRIMCOORD
24 1
Ti      4.46486902     6.76939599     2.12739298    -1.36123868     2.99415076     2.20320303
Ti      4.43669800     2.60545399     2.25925702     2.79165831    -4.09714131    -0.32403625
Ti      1.48961798     6.92889700     2.21819498     1.41628987     1.35153507     1.20794379
Ti      1.50466698     2.30787100     2.47846700    -2.00009043    -2.27132366     0.40709706
Ti      3.08050402     4.61284698     0.04435500    -4.63959774     0.10773723    -0.29246644
Ti      2.93935599     0.11911902     0.13506202     1.20823921    -0.22140343    -0.85712281
Ti      5.91166100     4.63761999     4.45148702     3.58339511    -0.69827871     0.80419226
Ti      5.91037102     9.21943400     0.20497601    -1.03634445     1.29528189    -2.71914392
O       4.44545398     5.53566802     0.82440899     0.71446690    -0.31554209    -0.43399132
O       4.46684698     0.92468099     1.20126998    -0.65912928    -0.71121985    -1.23294444
O       1.45957701     5.54827101     0.81744698     0.16884055    -0.25388625    -0.28792047
O       1.39758601     0.80785601     1.11295802     1.10658881     0.55860219    -0.11561870
O       4.50328898     8.57247401     3.80807702    -0.74885978    -0.49609788     0.07392696
O       4.37280398     3.80927402     3.70527402     0.38349381     0.22007957     0.12439670
O       1.40513700     8.32111900     3.74064301     0.49766266     0.35300617     0.01532944
O       1.48171599     3.72728197     3.72819301     0.06787792     1.39857060     0.48022208
O       3.01643002     6.01199602     3.18782498     0.40433106     0.17123553    -0.46939079
O       2.88067701     1.52532898     3.48103601    -0.07497288     0.32193360    -0.78028279
O       0.03130200     5.92834802     3.01199600    -0.55912876    -0.11930077     0.89147713
O       5.85942797     1.61089699     3.29097999     0.77837117     0.40302031    -0.01737835
O       3.03785303     7.82682601     1.29580099    -0.08953510    -1.15649369     1.26674700
O       2.95789403     3.06059701     1.32709399    -1.06088024     2.07568706    -0.91328883
O       0.06031398     7.82352601     1.36862700    -0.88219750    -1.49132138     1.20251928
O       5.87992200     3.30616700     1.34711801    -0.00924029     0.58116929    -0.23346859
