# total energy = -19517.34013495 eV

CRYSTAL
PRIMVEC
        5.93400000     0.00000000     0.00000000
        0.00000000     9.29699974     0.00000000
        0.00000000     0.00000000     4.64899994
PRIMCOORD
23 1
Ti      4.36216698     6.97960498     2.20178202     1.23598965     0.24401912    -0.78511955
Ti      4.55666799     2.30196999     2.38889799     0.28515216     0.51730126    -0.27201639
Ti      1.41660501     6.98171698     2.30262802    -1.53603673     0.54789792    -0.28300143
Ti      1.50621102     2.36350600     2.34342102    -0.14494805     0.03727792    -0.21337105
Ti      2.93000400     4.48978501     0.15159298     0.60686542     0.06767892     0.42572522
Ti      2.92900402     0.24633503     4.63917000    -0.57364110    -1.01682540     0.12913165
Ti      0.03447399     4.57561698     4.64463503    -0.76946101     1.05519270    -0.31297973
Ti      5.85981099     9.27134502     4.52036802     1.20108409    -0.94435266     0.48604486
O       4.27211901     5.51305501     0.94397702     0.89746369     0.41468695    -0.18890236
O       4.66132200     0.94095499     0.90562500    -1.54149724    -0.28869231     0.08137005
O       1.46221400     5.50992302     0.96344402     0.14880728     0.11913879    -0.24870573
O       1.53476902     1.13390000     0.87683199     0.70320006    -1.20255733    -0.26934141
O       4.61084198     8.42884298     3.52832800    -1.11140501     0.06190884     0.62568436
O       4.37818999     3.47841198     3.83067300     0.48324185     1.91594668     0.87419005
O       1.66465701     8.42954202     3.73035200    -0.44779635    -0.17794560    -0.18145207
O       1.47697800     3.72270703     3.82174699     0.07655180    -0.19965755    -0.53530876
O       3.03933599     1.46369501     3.19437799    -0.41793786    -1.17115309     0.55562408
O       5.89337798     5.97981998     3.28503701    -0.00389857     0.30562612    -0.21940825
O       0.12039301     1.43437600     3.33870998    -0.14628785     0.53566589    -1.30864057
O       2.86065098     7.78852300     1.31576801     0.83587469     0.21717191     0.92423608
O       2.99676098     3.33790901     1.54538702     0.19203217    -0.85965663     0.21237371
O       5.87385901     7.71631798     1.28202598     0.56509423     0.54983833     0.23822180
O       0.06864900     3.36783902     1.53063101    -0.53844705    -0.72851027     0.26564545
