# total energy = -19878.26243726 eV

CRYSTAL
PRIMVEC
        9.51044523     0.00000000     0.00000000
        0.00002957     3.37399657     0.00000000
        0.00000000     0.00000000    15.13031621
PRIMCOORD
24 1
Ti      3.44709627     1.99942713     5.61323953     0.24499588     0.06494326     1.99463480
Ti      6.06337814     1.37456912     9.51707713    -0.24499588    -0.06494326    -1.99463480
Ti      8.20215666     1.37457021     1.95185835     0.24209054    -0.06589894    -1.99652585
Ti      1.30831781     1.99942617    13.17845844    -0.24209054     0.06589894     1.99652585
Ti      3.44708187     0.31242891     1.95191903     0.24479251     0.06477511    -1.99671791
Ti      6.06339260     3.06156747    13.17839776    -0.24479251    -0.06477511     1.99671791
Ti      1.30830335     0.31242776     9.51701646    -0.24160691     0.06600333    -1.99428591
Ti      8.20217112     3.06156862     5.61330020     0.24160691    -0.06600333     1.99428591
O       3.01012622     1.18804145     7.72088473     0.73860674     0.51259177    -2.02435291
O       6.50034825     2.18595487     7.40943193    -0.73860674    -0.51259177     2.02435291
O       1.74517252     1.18805514     0.15577511    -0.73933821     0.51251695    -2.02425470
O       7.76530201     2.18594117    14.97454110     0.73933821    -0.51251695     2.02425470
O       6.50033379     0.49895652     0.15572598    -0.73837714    -0.51252364    -2.02301928
O       3.01014068     2.87503973    14.97459023     0.73837714     0.51252364     2.02301928
O       7.76528755     0.49894288     7.72093380     0.73838999    -0.51264499    -2.02487356
O       1.74518679     2.87505343     7.40938286    -0.73838999     0.51264499     2.02487356
O       0.34555422     2.05225597     4.08707595    -1.51796136     0.53036401     0.63231369
O       9.16492025     1.32174028    11.04324065     1.51796136    -0.53036401    -0.63231369
O       5.10078941     1.32170900     3.47813045    -1.51643746    -0.53039358    -0.63081705
O       4.40968506     2.05228731    11.65218595     1.51643746     0.53039358     0.63081705
O       0.34553976     0.36525769     3.47808216    -1.51812539     0.53054862    -0.63049464
O       9.16493471     3.00873863    11.65223425     1.51812539    -0.53054862     0.63049464
O       4.40967066     0.36528896    11.04328888     1.51699231     0.53025629    -0.63371803
O       5.10080381     3.00870729     4.08702765    -1.51699231    -0.53025629     0.63371803
