# total energy = -19920.12191537 eV

CRYSTAL
PRIMVEC
        6.65731185     0.00000000     0.00000000
        0.00003313     6.41059349     0.00000000
        0.00000000     0.00000000    11.37617748
PRIMCOORD
24 1
Ti      2.41297502     3.79891171     4.22048081     0.22474021    -0.89697441     0.76329705
Ti      4.24436997     2.61168165     7.15569706    -0.22474021     0.89697441    -0.76329705
Ti      5.74151492     2.61168386     1.46756269     0.22408509     0.89664891    -0.76369737
Ti      0.91583013     3.79890983     9.90861538    -0.22408509    -0.89664891     0.76369737
Ti      2.41295852     0.59361509     1.46760832     0.22474021    -0.89697441    -0.76329705
Ti      4.24438653     5.81697846     9.90856974    -0.22474021     0.89697441     0.76329705
Ti      0.91581356     0.59361276     7.15565149    -0.22408509    -0.89664891    -0.76369737
Ti      5.74153142     5.81698086     4.22052644     0.22408509     0.89664891     0.76369737
O       2.10709292     2.25727887     5.80517644     1.17024164     1.36236816    -0.43641510
O       4.55025213     4.15331449     5.57100143    -1.17024164    -1.36236816     0.43641510
O       1.22162535     2.25730479     0.11712413    -1.16978758     1.36250418    -0.43718180
O       5.43571976     4.15328863    11.25905348     1.16978758    -1.36250418     0.43718180
O       4.55023556     0.94801768     0.11708724    -1.17024164    -1.36236816    -0.43641510
O       2.10710949     5.46257568    11.25909037     1.17024164     1.36236816     0.43641510
O       5.43570320     0.94799182     5.80521339     1.16978758    -1.36250418    -0.43718180
O       1.22164172     5.46260160     5.57096455    -1.16978758     1.36250418     0.43718180
O       0.24189580     3.89928638     3.07298942    -0.16693459    -0.12246066     0.12621730
O       6.41544925     2.51130705     8.30318845     0.16693459     0.12246066    -0.12621730
O       3.57055763     2.51124738     2.61513568    -0.16713488     0.12259976    -0.12647801
O       3.08678736     3.89934605     8.76104206     0.16713488    -0.12259976     0.12647801
O       0.24187924     0.69398957     2.61509932    -0.16693459    -0.12246066    -0.12621730
O       6.41546575     5.71660386     8.76107836     0.16693459     0.12246066     0.12621730
O       3.08677086     0.69404924     8.30322475     0.16713488    -0.12259976    -0.12647801
O       3.57057419     5.71654413     3.07295312    -0.16713488     0.12259976     0.12647801
