# total energy = -19959.67839071 eV

CRYSTAL
PRIMVEC
        5.27150408     0.00000000     0.00000000
        0.00002624     5.07614342     0.00000000
        0.00000000     0.00000000     9.00807523
PRIMCOORD
24 1
Ti      1.91068226     3.00811784     3.34193174    -0.22946667     0.73417055    -1.09649440
Ti      3.36084806     2.06802547     5.66614380     0.22946667    -0.73417055     1.09649440
Ti      4.54634243     2.06802722     1.16207005    -0.22637620    -0.73386459     1.09696337
Ti      0.72518794     3.00811635     7.84600565     0.22637620     0.73386459    -1.09696337
Ti      1.91066919     0.47004624     1.16210618    -0.23004234     0.72970249     1.09663684
Ti      3.36086117     4.60609723     7.84596951     0.23004234    -0.72970249    -1.09663684
Ti      0.72517482     0.47004439     5.66610771     0.22585453     0.72919881     1.09706519
Ti      4.54635550     4.60609913     3.34196788    -0.22585453    -0.72919881    -1.09706519
O       1.66847358     1.78739633     4.59675196    -0.05868211    -0.71674875     0.49600944
O       3.60305679     3.28874699     4.41132358     0.05868211     0.71674875    -0.49600944
O       0.96732783     1.78741686     0.09274319     0.05846691    -0.71708428     0.49616679
O       4.30420259     3.28872651     8.91533215    -0.05846691     0.71708428    -0.49616679
O       3.60304367     0.75067523     0.09271398     0.05892276     0.71686728     0.49593307
O       1.66848670     4.32546809     8.91536135    -0.05892276    -0.71686728    -0.49593307
O       4.30418947     0.75065475     4.59678121    -0.05870833     0.71718327     0.49613542
O       0.96734079     4.32548862     4.41129438     0.05870833    -0.71718327    -0.49613542
O       0.19154198     3.08759819     2.43330591     0.39554406    -0.13118442     0.20998053
O       5.07998838     1.98854517     6.57476963    -0.39554406     0.13118442    -0.20998053
O       2.82729869     1.98849793     2.07076050     0.39603514     0.13107566    -0.20973602
O       2.44423162     3.08764544     6.93731494    -0.39603514    -0.13107566     0.20973602
O       0.19152886     0.54952643     2.07073170     0.39538439    -0.13115613    -0.20998207
O       5.08000145     4.52661693     6.93734368    -0.39538439     0.13115613     0.20998207
O       2.44421856     0.54957368     6.57479837    -0.39578420    -0.13110446    -0.20980364
O       2.82731181     4.52656963     2.43327717     0.39578420     0.13110446     0.20980364
