# total energy = -79406.56570335 eV

CRYSTAL
PRIMVEC
       10.35150501     0.00002646     0.00000000
        0.00002858    11.01713167     0.00000000
        0.00000000     0.00000000     9.26345890
PRIMCOORD
95 1
Ti      7.01672643     8.82579811     3.47242499     0.01965301     0.01258247     0.05745106
Ti      7.14538742     3.23111421     3.41981563     0.02820501    -0.01772828    -0.04094972
Ti      1.84712539     8.81110807     3.45427399     0.01618819     0.00716978    -0.04873708
Ti      1.77132809     3.14594263     3.50007633     0.02990631    -0.04400985     0.03169837
Ti      8.48610208     7.72897223     5.80008581     0.02908562    -0.00326299     0.01781775
Ti      8.49857277     2.22363543     5.83117809    -0.04007066    -0.00873558     0.03936129
Ti      3.28407701     7.71621811     5.81186381     0.00261430    -0.07764323    -0.04955752
Ti      3.32802733     2.20340084     5.83155001     0.06016049    -0.05069472     0.06512298
Ti      9.53626809     7.77555281     1.20445445    -0.01984867    -0.02536214    -0.04380904
Ti      9.66315128     2.17974653     1.15623441     0.02870792     0.04063733     0.00624470
Ti      4.46325604     7.69436077     1.21723349    -0.06086086    -0.01782984     0.00111355
Ti      4.48126992     2.23688692     1.21215434    -0.06142805    -0.04219953    -0.00152312
Ti      5.89798386     8.81246247     8.10396320    -0.00232762     0.00293003     0.04690542
Ti      5.92000211     3.29042891     8.08818074    -0.01163039     0.03649888     0.04697253
Ti      0.67255237     8.90005472     7.94768351     0.01132289     0.01485790    -0.02121778
Ti      0.73218435     3.29929284     8.07447706     0.00295600     0.03336805    -0.02381639
Ti      7.02864541     6.02385634     1.18909689    -0.02878223     0.01356874    -0.01090457
Ti      7.02735928     0.53862611     1.22673792    -0.01741615     0.03058791    -0.03320350
Ti      1.74348680     6.29068652     0.95617541    -0.03703984     0.05140923    -0.05379727
Ti      1.88145108     0.51402846     1.16303244     0.00547645     0.01212198    -0.02498985
Ti      8.41787810    10.47735027     8.10386976    -0.04742659    -0.00683862     0.04101142
Ti      8.50755737     4.95594063     8.09139785     0.02454659    -0.02018342    -0.00142388
Ti      3.32902268    10.46593018     8.09497362     0.00587214    -0.03473690    -0.03756974
Ti      3.30859777     4.95135143     8.08020593    -0.01907142    -0.04658532    -0.03127414
Ti      5.89945074     6.13929518     5.96297398     0.00239858     0.05964576     0.02510709
Ti      5.89863709     0.54791113     5.82859704    -0.00299894    -0.01770257    -0.02519065
Ti      0.73350559     6.02646436     5.80845953     0.00193193     0.05381552    -0.04321717
Ti      0.70200057     0.51740502     5.85439024    -0.02501530    -0.04000587    -0.04612844
Ti      9.63507775    10.49047147     3.44287639    -0.00067594     0.01929177    -0.06038418
Ti      9.65975111     5.00005327     3.38996020     0.00589837    -0.02861562    -0.00641002
Ti      4.43203108    10.47202697     3.45447603     0.00925906    -0.04720521    -0.03240542
Ti      4.73256801     4.92466510     3.63453672     0.08195909    -0.04984651     0.00471695
O       6.82243935     7.44599758     4.74123370    -0.03477213     0.00947915    -0.02390433
O       6.82932799     1.93015716     4.72575940    -0.00772437    -0.02207859     0.00078599
O       1.63749804     7.45419876     4.74459488    -0.00230885    -0.02904242    -0.03626182
O       1.60393759     1.88362900     4.72358585    -0.02116019    -0.01515743    -0.01664790
O       8.71909605     9.08351983     4.54123480     0.00002340    -0.02520196     0.00528130
O       8.75201696     3.56565039     4.53734481     0.00591611    -0.00692373    -0.01913364
O       3.52888800     9.08361863     4.54259007    -0.01308692    -0.01465144    -0.02059326
O       3.46785667     3.63618709     4.37411787    -0.10826868     0.02539351    -0.00489307
O       6.10836604     7.41593270     0.11796411    -0.04542267     0.03347269    -0.00764184
O       6.12272684     1.91791667     0.08700895     0.01773522     0.01836025     0.04238311
O       0.89305004     7.47970442    -0.02786097     0.04697973    -0.06489081     0.08170198
O       0.95003784     1.91639677     0.08446833     0.00934622     0.04748161    -0.00753796
O       9.38131101     9.11337860     9.16171987    -0.01842068    -0.02556500     0.01309746
O       9.41446909     3.56755534     9.16472401     0.00107755     0.02810834    -0.00967944
O       4.20540313     9.05825366     9.18841768    -0.02281418     0.05207746     0.01874001
O       4.23467959     3.57499022     9.18036027     0.05219573     0.00152518     0.02622603
O       8.70547448     6.32841825     0.10445506    -0.02077144     0.01746165    -0.02847832
O       8.69484192     0.82392132     0.09197662     0.03229024    -0.01864076    -0.00786192
O       3.53416967     6.32107965     0.08618334    -0.00645090    -0.01499571     0.03686372
O       3.53635662     0.81400478     0.11556166     0.01253028     0.02172403    -0.00099450
O       6.79270944    10.18756649     9.18952880     0.04371237    -0.03236634    -0.01718680
O       6.82728765     4.66677645     9.17315172    -0.02118795    -0.00280713     0.04137549
O       1.62421014    10.19927465     9.17017296    -0.01056210     0.06882357    -0.03848429
O       1.66175396     4.67733736     9.20985986     0.00733330    -0.04897028    -0.00747317
O       9.41470222     6.31074027     4.72203016     0.01096653    -0.00780047    -0.02517548
O       9.39979862     0.81364230     4.73147807     0.05550525    -0.01906474     0.03369123
O       4.23410997     6.33050366     4.74672769     0.05267472    -0.01352606     0.01880608
O       4.20838348     0.83797125     4.70771804     0.04760991     0.04304208     0.00498563
O       6.11218504    10.19819455     4.54617057     0.00124544     0.02078532     0.01213278
O       6.20935060     4.69614076     4.60661156    -0.06336975    -0.03343747     0.00747471
O       0.94594918    10.18253404     4.53975907    -0.02445403    -0.04575974     0.04666708
O       1.04160054     4.74257081     4.43202660    -0.10964448    -0.06532738     0.01348081
O       5.34879366     8.84054503     2.51350116     0.00461230    -0.00843579    -0.01111308
O       5.42179224     3.35243935     2.51562089     0.02304198    -0.03255275     0.02335951
O       0.19182905     8.86186756     2.47552670    -0.00505710     0.01691144     0.03638369
O       0.17003089     3.37072472     2.47628078    -0.00740992     0.00288606    -0.03451502
O      10.17190635     7.66765051     6.73726965    -0.01164993    -0.00735721    -0.01754856
O      10.17820559     2.14053613     6.76897177    -0.02499087    -0.01616865    -0.00396696
O       4.97948016     7.65603220     6.78930593    -0.00490207     0.01033892     0.02244008
O       4.96701045     2.16869728     6.74433058     0.03010840     0.04667660    -0.01746371
O       7.92915615     7.67065671     2.13599043    -0.02722645    -0.01646278     0.02253856
O       7.96657279     2.12315235     2.13954153     0.05078599    -0.02679553    -0.02548633
O       2.74856826     7.51962051     2.15797178    -0.02219506     0.02805820     0.02359939
O       2.78330086     2.26997183     2.11904544    -0.04600142    -0.03579928    -0.00928940
O       7.55037690     8.84804305     7.13531161    -0.00331750     0.03315593     0.01959850
O       7.58422527     3.34707046     7.12823827    -0.00095259     0.04948527     0.03900751
O       2.38158655     8.88526807     7.12222353     0.00698595     0.03327497    -0.03987063
O       2.39819766     3.35480655     7.10335946     0.07632014     0.04478323     0.01835460
O       5.33046426     6.04639242     2.14694911     0.02903985     0.02612447     0.02114939
O       5.36041528     0.59189663     2.14237948     0.00222323     0.00771820    -0.00209082
O       0.20187099     6.14392744     2.09021159     0.07008547    -0.00098602    -0.02265271
O       0.20798032     0.61529316     2.15120496    -0.01142084     0.00488510    -0.00718701
O      10.12443612    10.42199229     7.11572254     0.01657231    -0.03190457     0.01397704
O      10.18051505     4.88907664     7.11513086    -0.00045226     0.04398388    -0.00758501
O       4.98471729    10.41701132     7.14284522    -0.00883637     0.00214867    -0.00747523
O       4.99938783     4.89670809     7.13554043    -0.03208635     0.02524104     0.05196639
O       7.58343058     6.10557993     6.79368499     0.00847770     0.02543208    -0.00380138
O       7.55441263     0.60084504     6.77110989     0.02098150    -0.00303647     0.00970438
O       2.39556129     6.10442723     6.77531772    -0.00820619     0.01587143    -0.01120179
O       2.41090434     0.62177978     6.74396940     0.01381711     0.05481928     0.04520618
O       7.95269235    10.40893704     2.50715119    -0.02049247     0.00803701    -0.02318725
O       7.97233859     4.91062725     2.49767182     0.00663576    -0.02092365     0.00655966
O       2.77248291    10.39103478     2.48431189     0.01723745     0.02976439     0.01182965
