# total energy = -19072.64249767 eV

CRYSTAL
PRIMVEC
        5.17600016     0.00000000     0.00000000
        0.00000000     5.50899976     0.00000000
        0.00000000     0.00000000     9.26300011
PRIMCOORD
22 1
Ti      1.70282100     3.35630798     3.30946299    -0.69133390     1.87774110    -0.50284214
Ti      3.99697801     2.22306601     5.95031602    -1.45747665    -0.56680324    -1.23861989
Ti      4.24379601     2.05076399     1.37841402     2.81051607    -0.38246254     0.19904614
Ti      0.95101100     3.33595497     8.28958602    -0.32900028    -1.80880851     0.12131883
Ti      1.74333302     0.65548202     1.40142101    -1.38890299    -1.20690095    -1.65256226
Ti      3.34624800     5.41727398     7.76409703     0.04708977     0.45849343     2.22797202
Ti      1.09955899     5.44452301     6.05269901    -0.45808976     1.87497793    -0.78045865
Ti      4.18760998     4.96659498     3.53008899     1.03829515     0.09798992     0.32399100
O       3.22267501     3.45711402     4.29440398     1.19725777     0.08334517     2.86995769
O       0.98871102     1.80734103     0.17636700    -1.15138516     1.90901369    -0.80115707
O       4.39667701     3.86644099     7.97188302    -0.03418823    -1.48994481    -0.70538421
O       3.47018798     0.80665801     0.25914000    -0.33361156    -0.07524053    -1.91067103
O       1.65771399     4.66851097     9.10258701     0.76482634     1.20749822     1.03384842
O       4.06834401     1.07311601     4.56883801     0.12690147    -0.20046899     0.39777655
O       0.80507699     4.94725001     4.31377399     0.57432964    -1.14508981     0.59727494
O       5.09290801     3.47005198     2.35440097     0.57552803    -0.11310338     0.20292311
O       5.00414000     0.83856502     7.07135998    -0.59309947     0.30201320     0.10155861
O       2.62297600     2.01977997     2.33627099    -0.29189539     0.32120469    -0.04044578
O       1.80343300     3.91425802     6.65700101     1.13149458    -1.09705387     0.78850827
O       5.13924203     0.59979902     2.20154998     0.56061691     0.32309034    -0.14263766
O       2.51013498     1.13182102     6.58921299    -0.89608481     0.43393475    -0.38850643
O       2.64978798     4.89531502     2.48809099    -1.20178729    -0.80342556    -0.70089018
