# total energy = -4987.94000807 eV

CRYSTAL
PRIMVEC
        3.93664052     0.00000000     0.00000000
        1.51408551     3.63382493     0.00000000
       -2.72539956    -1.81693683     5.13173764
PRIMCOORD
6 1
Ti      1.13545771     2.72550859     1.28293414     0.00068803    -0.00068803     0.00000000
Ti      1.58986887    -0.90862046     3.84880280    -0.00068803     0.00068803     0.00000000
O       0.37856230     0.90845147     0.83591800    -0.00040135    -0.00053530    -1.74191018
O       2.34676410     0.90843659     4.29581899     0.00040135     0.00053530     1.74191018
O      -0.37852830    -0.90842881     3.40178671    -0.00053530    -0.00040135    -1.74191018
O       3.10385464     2.72531682     1.72995033     0.00053530     0.00040135     1.74191018
