# total energy = -4989.00970478 eV

CRYSTAL
PRIMVEC
        3.71109516     0.00000000     0.00000000
        1.08882210     3.54777306     0.00000000
       -2.39999212    -1.77391129     4.79159598
PRIMCOORD
6 1
Ti      0.81650301     2.66096581     1.19789872     0.00040675    -0.00040675    -0.00000000
Ti      1.58342189    -0.88710420     3.59369655    -0.00040675     0.00040675     0.00000000
O       0.27224434     0.88693835     0.78051170    -0.00002725     0.00028616    -0.62940834
O       2.12768040     0.88692318     4.01108357     0.00002725    -0.00028616     0.62940834
O      -0.27221576    -0.88691722     3.17630954     0.00028616    -0.00002725    -0.62940834
O       2.67214048     2.66077865     1.61528578    -0.00028616     0.00002725     0.62940834
