# total energy = -19513.48211763 eV

CRYSTAL
PRIMVEC
        5.17600016     0.00000000     0.00000000
        0.00000000     5.50899976     0.00000000
        0.00000000     0.00000000     9.26300011
PRIMCOORD
23 1
Ti      2.00614900     2.90713201     3.19759899    -0.18975443    -1.40088562     3.80404470
Ti      3.19564802     2.57629902     6.04756298    -0.29548543     1.01958959    -3.61366395
Ti      4.43247998     1.82554102     1.39101199     1.37108369     1.24500292    -2.92610443
Ti      1.08298998     3.27937598     7.69703000    -3.55920925     0.26430950     3.79820598
Ti      2.07673701     0.04465102     1.22966198    -0.02545419    -0.89681346    -0.76818960
Ti      3.14947000     0.15663800     7.59020499     2.80994915    -1.29871354     1.38998054
Ti      0.60460999     0.68800901     6.10680500    -1.85966984    -0.41791009    -2.27090226
Ti      4.57900302     4.59955299     3.18356198     1.71994498     0.88209620     3.59861348
O       1.72666002     1.84062098     4.78205701    -0.65098659     0.65969595     1.32753767
O       3.30426001     3.81067697     4.48706001     0.37648549    -1.06730388    -0.10763696
O       0.43524501     2.41788198     0.05166998    -1.29140158    -0.10135627     1.14215001
O       3.49952901     0.62105602     0.19126699     0.40697493     0.91048196    -0.08138573
O       1.72557700     4.51985598     9.05462699     0.30381683     0.69313779     0.36356055
O       4.03325999     1.00671802     5.48537501    -0.29329973    -1.77508900    -0.44313519
O       0.58631500     4.86995103     4.56941100    -0.22529763     0.54350441    -0.12996828
O       0.15264001     2.99766101     2.69668801     0.30825713     0.63877051    -0.08394938
O       4.77897900     2.49052002     6.93164200     1.72015916     0.15562559     0.40833479
O       2.80722102     1.36059202     2.48975002     0.87004106     1.53196410    -0.18321251
O       2.31955402     4.26488902     6.79072702     0.50260663     0.70567603    -2.14968370
O       0.40652000     0.60083499     1.89399401    -0.53921967    -2.86511218     1.60281268
O       4.92162201     5.01650503     7.45560299     0.66846573     0.83942641    -0.46537396
O       2.24277998     1.77381601     7.59610098    -0.90409482    -0.39865766    -1.28713766
O       2.97135100     4.24886802     2.28985199    -1.22391112     0.13256073    -2.92489730
