# total energy = -4971.29731971 eV

CRYSTAL
PRIMVEC
        4.63508688     0.00000000     0.00000000
       -0.00000702     2.78105213     0.00000000
       -2.31756955    -1.39057680     5.04780954
PRIMCOORD
6 1
Ti     -0.00019868     2.08588795     1.26195205    -0.01251613    -0.01799799    22.38501844
Ti      2.31770884    -0.69541272     3.78585687     0.01251613     0.01799799   -22.38501844
O       0.00004909     0.69525410     0.82224682     0.01062946     0.01276142   -13.53327545
O       2.31746097     0.69522108     4.22556215    -0.01062946    -0.01276142    13.53327545
O      -0.00001909    -0.69526336     3.34615159    -0.00204120    -0.00026688    -1.12341900
O       2.31752910     2.08573848     1.70165733     0.00204120     0.00026688     1.12341900
