# total energy = -19074.45132366 eV

CRYSTAL
PRIMVEC
        5.93400000     0.00000000     0.00000000
        0.00000000     9.29699974     0.00000000
        0.00000000     0.00000000     4.64899994
PRIMCOORD
22 1
Ti      4.46013399     6.85347299     2.44025803    -0.40549269     0.49020902    -0.63254792
Ti      4.36499300     2.38289098     2.25080998     0.02148363    -0.56184667    -0.36785301
Ti      1.56354901     7.20716898     2.54680702    -0.43181591     0.25751716    -0.37466849
Ti      1.60557299     2.41975600     2.09819298    -0.50330391     0.36600593    -0.10520881
Ti      3.01972902     4.59968301     4.46434698    -0.91312377     0.10065153     0.33577566
Ti      2.97491401     9.28669301     0.03740098     0.12253239     0.70554002     0.17893753
Ti      5.81031900     4.56956001     4.47736199     0.80450902    -0.77082138     0.56976310
Ti      5.86020301     9.16889699     0.22725401    -0.11610592    -0.35237830     1.19621056
O       4.40843099     5.41336097     0.86407702     0.40645017     0.72997374     1.22740757
O       4.41241998     0.74320198     1.08327102     0.70414571     0.84059935    -0.24041212
O       1.45511901     0.65165300     1.19947602    -0.11240044     1.60120497    -0.55986178
O       4.44742702     8.35030598     3.81919398     0.33403733     0.64344683     0.03148883
O       4.40262698     4.01517398     3.34802699     0.31764500    -1.28171623    -0.60697803
O       1.41234201     8.43033499     3.84281698    -0.06783241     0.92174931     0.01636919
O       1.53434600     3.89620699     3.39803302    -0.22850148    -0.21589150     0.32888947
O       2.86754399     6.30631499     3.57730002     0.21051789    -0.85312423    -0.83289555
O       3.09671500     1.51762198     3.34091998    -0.29109629    -0.22106507     0.01531607
O       5.92491800     6.19732501     3.38235202     0.86058043    -1.08771100     0.17513384
O       3.00307301     7.96577701     1.53775702    -0.21994022    -1.70393112     0.12026031
O       3.08380900     2.97515600     1.00960299    -0.25098141     0.89101845     0.38588596
O       5.91999501     7.86961402     1.56703100    -0.25411148    -0.87889800    -0.59894487
O       0.03916298     3.06389299     1.22082599     0.01280384     0.37946720    -0.26206776
