# total energy = -19960.73915801 eV

CRYSTAL
PRIMVEC
        7.60600008     0.00000000     0.00000000
        0.00000000     7.60600008     0.00000000
       -1.89786986    -1.89786986     4.85670466
PRIMCOORD
24 1
Ti      3.79004102     6.69859398     1.09451101     0.40051786     0.57970145     1.26663259
Ti      3.81431502     2.95492502     1.11601000     0.22331633    -1.44358343     1.38451951
Ti     -0.04324198     6.70717501     1.25861300    -0.82963693     0.29893148     0.27060459
Ti     -0.03110599     2.92685900     1.32894198     0.04355270    -0.98487223    -0.94153858
Ti      5.66882822     2.91506824     3.76813181    -0.15028361    -2.85386926    -1.45735143
Ti      5.67210521    -1.01333178     3.69094480    -0.70691891     2.44000017    -1.42625033
Ti      1.99744520     2.81758321     3.66282580     0.21416706     0.35834352    -1.12357970
Ti      1.89611522    -0.97348775     3.55049783     0.97040591    -0.64111484     0.46754911
O       3.81305102     4.81262499     0.75708098    -0.29385098    -2.09842565     0.69981186
O       3.87810998     0.87083599     0.62753701    -0.66572905     1.41530565     0.58846840
O      -0.16785899     4.77218399     0.82433898     0.54992755     0.09937137     0.10525612
O      -0.19854101     1.05508302     0.68873901     0.38057560    -1.27877128     1.72533196
O       5.70467120     4.75761024     4.16139481    -0.10037308    -0.27821840    -0.69017613
O       5.76191622     0.93015523     4.00522079     0.50326278     0.60783601     0.56406450
O       2.12397524     4.69801123     4.02200481    -0.49544713     0.01322730    -0.98669026
O       1.99709721     0.91068822     4.09450781    -0.71106173    -0.11946327     0.04583764
O       3.83801724     2.49403323     3.25301882     0.77067046     1.54705083    -0.40064513
O       3.73202324    -0.98323477     3.11173284     0.31361145     0.00104001     0.44231655
O       0.08587123     2.74058421     3.24132184    -1.08081478     0.62296490     0.36956254
O      -0.02986475    -1.16520475     3.17151680     0.06571279     0.48082527     0.36388425
O       5.60268001     6.75438101     1.63938101     1.42573148    -0.40944936     0.00087675
O       5.73809599     2.99615402     1.67167998    -1.21244477    -0.05915416     0.30080453
O       1.84389400     6.53431201     1.53587802    -0.28682029     0.79780744    -0.09633104
O       1.93520401     2.67564998     1.73269798     0.67193004     0.90451648    -1.47295752
