# total energy = -19940.21892829 eV

CRYSTAL
PRIMVEC
        6.79317544     0.00000000     0.00000000
        0.00002563     4.33799560     0.00000000
        0.00000000     0.00000000    10.37507419
PRIMCOORD
24 1
Ti      2.46221436     2.57069215     3.84907855     0.28704706     0.72353055     0.24080010
Ti      4.33098627     1.76730339     6.52599576    -0.28704706    -0.72353055    -0.24080010
Ti      5.85868520     1.76730485     1.33841716     0.28602222    -0.72362106    -0.24039695
Ti      0.93451548     2.57069086     9.03665720    -0.28602222     0.72362106     0.24039695
Ti      2.46220176     0.40169441     1.33845877     0.28704706     0.72353055    -0.24080010
Ti      4.33099886     3.93630124     9.03661564    -0.28704706    -0.72353055     0.24080010
Ti      0.93450283     0.40169284     6.52595414    -0.28602222     0.72362106    -0.24039695
Ti      5.85869780     3.93630281     3.84912011     0.28602222    -0.72362106     0.24039695
O       2.15009182     1.52748195     5.29432097     1.53179364     0.07919206     0.09286622
O       4.64310887     2.81051354     5.08075334    -1.53179364    -0.07919206    -0.09286622
O       1.24655343     1.52749947     0.10681721    -1.53122157     0.07913704     0.09234275
O       5.54664731     2.81049607    10.26825676     1.53122157    -0.07913704    -0.09234275
O       4.64309627     0.64151568     0.10678354    -1.53179364    -0.07919206     0.09286622
O       2.15010441     3.69647980    10.26829043     1.53179364     0.07919206    -0.09286622
O       5.54663466     0.64149822     5.29435458     1.53122157    -0.07913704     0.09234275
O       1.24656592     3.69649732     5.08071967    -1.53122157     0.07913704    -0.09234275
O       0.24682727     2.63861483     2.80256638    -0.96596227     0.45295064     1.15210815
O       6.54637341     1.69938065     7.57250787     0.96596227    -0.45295064    -1.15210815
O       3.64342281     1.69934032     2.38500373    -0.96581341    -0.45259377    -1.15253933
O       3.14977782     2.63865522     7.99007036     0.96581341     0.45259377     1.15253933
O       0.24681462     0.46961698     2.38497061    -0.96596227     0.45295064    -1.15210815
O       6.54638600     3.86837850     7.99010347     0.96596227    -0.45295064     1.15210815
O       3.14976522     0.46965736     7.57254093     0.96581341     0.45259377    -1.15253933
O       3.64343541     3.86833812     2.80253326    -0.96581341    -0.45259377     1.15253933
