# total energy = -19960.74194513 eV

CRYSTAL
PRIMVEC
        5.93400000     0.00000000     0.00000000
        0.00000000     9.29699974     0.00000000
        0.00000000     0.00000000     4.64899994
PRIMCOORD
24 1
Ti      4.44109102     7.05385199     2.33550501     0.14363319    -2.02380938    -0.46996724
Ti      4.47889200     2.20604502     2.21180803    -0.58399030     1.36899287     1.18148919
Ti      1.42991001     7.00925500     2.42450098    -0.09805445    -2.35201056    -0.85748842
Ti      1.52588202     2.37393799     2.30243497     0.53940376     0.63691211     0.40583824
Ti      2.98804199     4.65453599     4.57146997    -0.68804777     0.88829822     0.66899486
Ti      2.96218698     9.23454000     0.04455598    -0.81528452     0.04688563     0.18991023
Ti      5.88104301     4.58680902     0.06290399     0.65425961     1.31467315    -0.21105602
Ti      0.00947201     0.01012702     4.60747900     0.82862932     0.18238950     0.08509480
O       4.37252499     5.68273400     0.91494403     0.73027687    -0.73335706    -0.66590594
O       4.46190599     0.86850200     0.91810602    -0.22330553    -0.20831420    -0.45910124
O       1.52346701     5.65045000     0.86729400    -0.43917672    -0.75891794    -0.08525421
O       1.48394800     0.93637502     0.76639302     0.26373640     0.38840513     0.71486979
O       4.45305598     8.40268300     3.79804102    -0.20703225    -0.02639573    -0.23956931
O       4.49852300     3.67736701     3.82082802    -0.26216752     0.17706654    -0.02433139
O       1.50633098     8.37246899     3.76783701     0.07322273     0.23534550     0.56949570
O       1.44283702     3.70617701     3.80442501     0.11935245    -0.03915817    -0.44762666
O       3.04274400     6.01907398     3.20406702    -0.33443714     0.39108191     0.17321271
O       2.94377298     1.52172602     3.22768002     0.40132416    -1.31145825     0.13481404
O       5.83215000     5.98621101     3.17827000     0.50148486     0.96751496    -0.07385677
O       0.03460301     1.37177301     3.10364902    -0.18311481    -0.52708020     0.83973520
O       2.86523398     7.80188700     1.46331401     1.00029705     2.02022398    -0.91598798
O       3.01046101     3.28848799     1.48432202    -0.19718209    -0.32637724    -0.39100451
O       0.12624799     8.00999702     1.53351101    -1.20676751     0.01696543    -0.63076332
O       5.91938799     3.25841998     1.41861202    -0.01705979    -0.32787568     0.50845846
