# total energy = -4988.91474395 eV

CRYSTAL
PRIMVEC
        4.00521754     0.00000000     0.00000000
        0.98589079     3.88198234     0.00000000
       -2.49559064    -1.94101954     5.15258708
PRIMCOORD
6 1
Ti      0.73928804     2.91163542     1.28814669     0.00008536    -0.00008536     0.00000000
Ti      1.75622985    -0.97067247     3.86444006    -0.00008536     0.00008536     0.00000000
O       0.24651470     0.97049006     0.83931427    -0.00054610    -0.00085129    -1.04639387
O       2.24900301     0.97047280     4.31327247     0.00054610     0.00085129     1.04639387
O      -0.24648608    -0.97046780     3.41560764    -0.00085129    -0.00054610    -1.04639387
O       2.74200378     2.91143060     1.73697910     0.00085129     0.00054610     1.04639387
