# total energy = -4978.41790328 eV

CRYSTAL
PRIMVEC
        4.40404583     0.00000000     0.00000000
       -0.00000715     2.93603022     0.00000000
       -2.20204887    -1.46805991     4.87894268
PRIMCOORD
6 1
Ti     -0.00018928     2.20212932     1.21973541    -0.00826199    -0.01179340    16.25518227
Ti      2.20217914    -0.73415932     3.65920660     0.00826199     0.01179340   -16.25518227
O       0.00004634     0.73399958     0.79473978     0.00644627     0.01217778    -7.95423226
O       2.20194342     0.73397037     4.08420229    -0.00644627    -0.01217778     7.95423226
O      -0.00001887    -0.73400229     3.23421101    -0.00173524    -0.00019875    -0.53156858
O       2.20200858     2.20197218     1.64473110     0.00173524     0.00019875     0.53156858
