# total energy = -19916.12419026 eV

CRYSTAL
PRIMVEC
        6.39270859     0.00000000     0.00000000
        2.91419768     6.14807325     0.00000000
        0.00000000     0.00000000    11.75770186
PRIMCOORD
24 1
Ti      4.04400017     3.64334248     4.36202350     0.09948270    -2.43286999     0.52522489
Ti      5.26290588     2.50473069     7.39567842    -0.09948270     2.43286999    -0.52522489
Ti      6.70054591     2.50473276     1.51678050    -0.76861383    -1.26092037     0.44564716
Ti      2.60636027     3.64334063    10.24092162     0.76861383     1.26092037    -0.44564716
Ti      2.58690149     0.56930595     1.51682762     0.09948270    -2.43286999    -0.52522489
Ti      6.72000461     5.57876740    10.24087450    -0.09948270     2.43286999     0.52522489
Ti      1.14926142     0.56930369     7.39563130     0.76861383     1.26092037     0.44564716
Ti      8.15764474     5.57876965     4.36207069    -0.76861383    -1.26092037    -0.44564716
O       3.04947111     2.16484108     5.99986527     1.80989480     2.08587738    -0.90805432
O       6.25743495     3.98323209     5.75783672    -1.80989480    -2.08587738     0.90805432
O       2.19920932     2.16486591     0.12105215     0.08096793    -1.06543983     1.72060936
O       7.10769683     3.98320736    11.63664952    -0.08096793     1.06543983    -1.72060936
O       4.80033623     0.90919543     0.12101395    -1.80989480    -2.08587738    -0.90805432
O       4.50656984     5.23887779    11.63668765     1.80989480     2.08587738     0.90805432
O       5.65059810     0.90917065     5.99990340    -0.08096793     1.06543983     1.72060936
O       3.65630791     5.23890259     5.75779853     0.08096793    -1.06543983    -1.72060936
O       2.00484207     3.73960670     3.17604861     0.66202563     2.96011860     2.77269385
O       7.30206393     2.40846648     8.58165338    -0.66202563    -2.96011860    -2.77269385
O       4.57021906     2.40840926     2.70283975     0.70004917     2.08778848     1.68704822
O       4.73668700     3.73966390     9.05486198    -0.70004917    -2.08778848    -1.68704822
O       0.54774334     0.66556999     2.70280219     0.66202563     2.96011860    -2.77269385
O       8.75916266     5.48250319     9.05489954    -0.66202563    -2.96011860     2.77269385
O       3.27958827     0.66562719     8.58169081    -0.70004917    -2.08778848     1.68704822
O       6.02731778     5.48244597     3.17601105     0.70004917     2.08778848    -1.68704822
