# total energy = -19515.87161427 eV

CRYSTAL
PRIMVEC
        5.17600016     0.00000000     0.00000000
        0.00000000     5.50899976     0.00000000
        0.00000000     0.00000000     9.26300011
PRIMCOORD
23 1
Ti      1.86219300     3.23299698     3.42626802     1.43082895    -0.84372427     1.05087890
Ti      3.21177200     2.28085301     5.93608602     1.36540361     0.52338372    -2.11078520
Ti      4.36073302     2.13639498     1.51306497     0.83885588    -0.73802309    -0.88705714
Ti      0.88076902     3.38953899     7.77810800    -1.83034408     0.40984377     1.18852013
Ti      2.10339898     0.17437301     1.43695500    -1.27789017     1.10107688    -2.27381763
Ti      3.27876499     5.23853801     7.82573300    -0.07259358     1.14322602     1.51941455
Ti      0.62893600     0.59114602     5.79098398    -1.23246699     1.00123268    -2.30106131
Ti      4.56838799     4.88965801     3.39669299    -0.36887914    -0.07230125     2.12353660
O       1.81708699     1.98600000     4.77809998    -3.16582467    -1.74805126    -0.28897925
O       3.52038801     3.51637198     4.41223800     0.92389387     1.02155649     0.09409830
O       5.17411999     2.54637399     9.22020702     1.03892969     1.26854549    -1.25586635
O       3.40881802     0.81224803     0.07512502     0.16581950     0.59801053     1.69686290
O       1.78966301     4.64362499     9.14340901    -0.61500373    -0.84825404    -0.76724806
O       3.99262600     0.73996098     5.08689502     2.01722684    -1.65600497    -1.99320990
O       0.96309497     4.48191800     4.45889699    -0.59095697     2.47154196     1.17218771
O       0.21658002     3.32073102     2.50182399    -0.01421126     0.84558241    -0.81405810
O       4.95387801     2.27056300     6.57220502     1.76295878     0.66583266     1.43263490
O       2.85623198     1.61420202     2.46960900    -0.96552339     0.31334252    -0.37176237
O       2.50960702     3.83330100     6.91720599    -0.15837616    -2.01018638    -0.24637245
O       0.26856301     0.81169398     2.22387099     0.54820568    -1.90657912    -0.31704388
O       5.08732498     4.99402102     7.11523697    -0.29706254    -1.64660450     1.74188164
O       2.22472900     0.87626699     6.90144503    -0.12337983     0.88212474     1.16269108
O       2.99930802     4.35409401     2.17655000     0.62038917    -0.77557150     0.44455470
