# total energy = -39034.32933622 eV

CRYSTAL
PRIMVEC
        7.60600008     0.00000000     0.00000000
        0.00000000     7.60600008     0.00000000
       -3.79573973    -3.79573973     9.71340985
PRIMCOORD
46 1
Ti      1.92045743     4.93757543     6.37213665     0.74878882     1.67883586     1.28131951
Ti      3.89898898     6.60645898     1.23481802     0.84344351     1.51633848    -0.37475899
Ti      1.71658247     0.99108046     5.94861265     1.63437889    -1.18244127     0.76533671
Ti      3.81904501     2.91056801     1.10888500    -1.14151341    -1.61037404     0.74334708
Ti     -1.97937454     4.74524146     6.28708860     1.08177663     2.33826056    -1.98861765
Ti      0.16982700     6.39478199     1.25959902    -0.05733022     2.84069158    -0.57039842
Ti     -2.06066654     1.06893042     6.01021063    -0.70927815    -2.02336638    -1.14178543
Ti     -0.10528098     2.86538802     1.04299698     1.03820953    -1.16908567     1.57782592
Ti      3.62619144     0.91114247     8.39024363     0.41780365    -0.01191912    -0.79599558
Ti      5.72705201     2.94978301     3.58918597     0.54060087    -0.08487986    -0.25536823
Ti      3.87495143    -2.97866053     8.71679462    -0.34996224     0.11645199     0.67450911
Ti      5.87960503    -0.87272298     3.55926799    -1.39343276     0.29706177     0.78906440
Ti     -0.15157457     0.81403844     8.20615164    -0.29918216     0.34552760     2.84006629
Ti      1.95451601     2.99926701     3.46729301    -0.58955083    -3.25187309    -1.60845677
Ti     -0.01546155    -2.98326754     8.64459865     0.90468361    -0.25092433     1.84457360
Ti      1.98072399    -0.86570498     3.75698401     1.51225402     1.23791798    -0.40478640
O       2.11629047    -0.87144454     5.71921262    -0.77904352    -0.74894772    -0.05823242
O       3.95058102     1.02230901     0.88355402    -0.75225956    -2.00385838    -1.12007117
O      -1.98975054     3.01082344     5.58569861     0.25234796    -0.56988497     0.28663131
O       7.32067798     4.72944600     0.69482899     0.23441553    -0.77760267    -0.65100459
O      -2.07348654    -0.86593353     5.58273961     0.46337081    -0.30408191    -0.22903575
O       0.17564001     0.77496198     0.93175202    -0.22932706     1.31063164    -0.72057095
O       3.97014046     2.80749047     8.84699064     0.22979012    -2.25024935     0.09041416
O       5.72427298     4.92945500     3.93449498    -0.10102948    -2.19291141     0.09641769
O       3.65259347    -1.00442255     8.88068362    -0.38108108     0.67131554     0.16043407
O      -1.48601502     0.96186998     4.06521901    -0.94291798     1.38959359     0.10426573
O      -0.09820456     2.73225248     8.84615761    -0.45792701    -0.93828279     0.20488537
O       1.65515902     4.24212799     4.74796001     1.05060713    -0.09984909    -0.80232975
O       0.03892845    -0.98433657     8.99832962     0.14956884     1.76238671    -1.61511335
O       1.78132202     1.00947302     4.12046702    -0.19820770     1.30304739    -2.37990730
O       1.71874543     0.89308943     7.85263362     1.73902258     0.20393766     1.87322238
O       3.79771499     2.42872000     3.15863800    -0.75065030     2.29023773     0.60555055
O       2.02167247    -3.05799155     8.40226563    -1.03806143     0.19882065    -1.34747581
O       3.86399799    -0.72832300     3.16196001    -0.08561134    -0.73937704     0.69254566
O      -2.07989557     0.48089247     7.86653865     0.09277315     1.47223479     0.49967197
O       0.04721600     3.00054598     3.05577001    -0.19432996    -0.05271252     0.20378597
O      -1.87431455    -2.70637756     8.13867165     0.87120475    -0.54776422     1.16986369
O       0.18998500    -1.04923699     3.18813799    -0.21397628    -0.57141478     0.23620168
O       3.92104843     4.92414846     6.73332663    -2.51367002    -0.76547220    -1.20045957
O       5.80556101     6.66686102     1.47365699     0.20329643    -0.50341499     1.22455390
O       3.65646144     1.27210946     6.33004065    -0.23012487     0.30882689     0.57156647
O       5.61489099     2.81994900     1.65854501     1.50998991     0.87647808    -0.48474620
O       0.12087345     4.79888146     6.76155263    -0.52950655     0.22802557    -1.26084015
O       2.08513702     6.52310700     1.56974901    -1.62532090    -0.96387531     0.29492673
O      -0.11012353     0.95086347     6.38290064    -0.62058277     0.82277569    -1.44156871
O       1.85908398     3.05039199     1.25929898     0.66555035     0.40516539     1.62054327
