# total energy = -19899.90527190 eV

CRYSTAL
PRIMVEC
        6.78256129     0.00000000     0.00000000
        2.77645343     6.66339851     0.00000000
        0.00000000     0.00000000    12.39952597
PRIMCOORD
24 1
Ti      4.10367603     3.94872391     4.60013570    -0.31213872    -1.95136826     0.43664650
Ti      5.45533880     2.71467479     7.79939041     0.31213872     1.95136826    -0.43664650
Ti      6.98065171     2.71467705     1.59957779     0.05916188    -1.10444863     0.13233036
Ti      2.57836317     3.94872191    10.79994839    -0.05916188     1.10444863    -0.13233036
Ti      2.71544945     0.61702463     1.59962750    -0.31213872    -1.95136826    -0.43664650
Ti      6.84356542     6.04637427    10.79989868     0.31213872     1.95136826     0.43664650
Ti      1.19013643     0.61702218     7.79934064    -0.05916188     1.10444863     0.13233036
Ti      8.36887844     6.04637672     4.60018540     0.05916188    -1.10444863    -0.13233036
O       3.12435991     2.34629596     6.32738321     1.77079448     1.98046853    -0.74366975
O       6.43465485     4.31710275     6.07214290    -1.77079448    -1.98046853     0.74366975
O       2.22224452     2.34632288     0.12766007    -0.27405373    -0.70609307     1.53707649
O       7.33677040     4.31707593    12.27186563     0.27405373     0.70609307    -1.53707649
O       5.04642824     0.98540333     0.12761982    -1.77079448    -1.98046853    -0.74366975
O       4.51258659     5.67799536    12.27190588     1.77079448     1.98046853     0.74366975
O       5.94854371     0.98537646     6.32742340     0.27405373     0.70609307     1.53707649
O       3.61047100     5.67802233     6.07210264    -0.27405373    -0.70609307    -1.53707649
O       1.93522254     4.05305690     3.34942133     0.60911796     2.65738728     2.53599389
O       7.62379223     2.61034181     9.05010478    -0.60911796    -2.65738728    -2.53599389
O       4.72535146     2.61027980     2.85038117     0.51935660     2.09444121     1.63001727
O       4.83366330     4.05311891     9.54914474    -0.51935660    -2.09444121    -1.63001727
O       0.54699591     0.72135742     2.85034152     0.60911796     2.65738728    -2.53599389
O       9.01201892     5.94204128     9.54918432    -0.60911796    -2.65738728     2.53599389
O       3.44543669     0.72141949     9.05014429    -0.51935660    -2.09444121     1.63001727
O       6.11357807     5.94197922     3.34938175     0.51935660     2.09444121    -1.63001727
