# total energy = -19957.29839384 eV

CRYSTAL
PRIMVEC
        5.73344000     0.00000000     0.00000000
        0.00002853     5.52096011     0.00000000
        0.00000000     0.00000000     9.79744265
PRIMCOORD
24 1
Ti      2.07811318     3.27171580     3.63478143     0.03169991    -0.20136656     0.05772052
Ti      3.65535536     2.24924420     6.16266155    -0.03169991     0.20136656    -0.05772052
Ti      4.94473326     2.24924610     1.26390093     0.03321018     0.20172446    -0.05751123
Ti      0.78873533     3.27171418     8.53354223    -0.03321018    -0.20172446     0.05751123
Ti      2.07809897     0.51123585     1.26394023     0.03169991    -0.20136656    -0.05772052
Ti      3.65536963     5.00972431     8.53350292    -0.03169991     0.20136656     0.05772052
Ti      0.78872107     0.51123384     6.16262231    -0.03321018    -0.20172446    -0.05751123
Ti      4.94474747     5.00972638     3.63482073     0.03321018     0.20172446     0.05751123
O       1.81468003     1.94402384     4.99956012     0.75545672     0.56986826    -0.01277582
O       3.91878857     3.57693616     4.79788287    -0.75545672    -0.56986826     0.01277582
O       1.05209367     1.94404617     0.10087017    -0.75478104     0.56964431    -0.01339108
O       4.68137498     3.57691388     9.69657259     0.75478104    -0.56964431     0.01339108
O       3.91877430     0.81645605     0.10083840    -0.75545672    -0.56986826    -0.01277582
O       1.81469429     4.70450395     9.69660436     0.75545672     0.56986826     0.01277582
O       4.68136071     0.81643377     4.99959194     0.75478104    -0.56964431    -0.01339108
O       1.05210777     4.70452628     4.79785110    -0.75478104     0.56964431     0.01339108
O       0.20832659     3.35816092     2.64653375     0.06009030    -0.13634257     0.18787521
O       5.52514201     2.16279913     7.15090923    -0.06009030     0.13634257    -0.18787521
O       3.07505167     2.16274774     2.25221889     0.06037570     0.13654131    -0.18802407
O       2.65841687     3.35821231     7.54522398    -0.06037570    -0.13654131     0.18802407
O       0.20831232     0.59768081     2.25218757     0.06009030    -0.13634257    -0.18787521
O       5.52515622     4.92327924     7.54525524    -0.06009030     0.13634257     0.18787521
O       2.65840266     0.59773220     7.15094050    -0.06037570    -0.13654131    -0.18802407
O       3.07506594     4.92322780     2.64650249     0.06037570     0.13654131     0.18802407
