# total energy = -4988.00887712 eV

CRYSTAL
PRIMVEC
        2.84743738     0.00000000     0.00000000
        0.88346675     4.37316085     0.00000000
       -0.00000588    -0.00005842     4.48420788
PRIMCOORD
6 1
Ti      1.86544907     2.18655122     2.24210404     0.00000000     0.00000000     0.00000000
Ti      0.00000000     0.00000000     0.00000000     0.00000000     0.00000000     0.00000000
O       1.59589215     0.85225330     0.87390612    -2.51826484     1.20484124     1.28743205
O       2.13500599     3.52084915     3.61030195     2.51826484    -1.20484124    -1.28743205
O       0.26955451     1.33427426     3.11601097     2.51853481    -1.20550382     1.28832808
O       0.61390635     3.03882807     1.36819711    -2.51853481     1.20550382    -1.28832808
