# total energy = -19515.92435077 eV

CRYSTAL
PRIMVEC
        5.17600016     0.00000000     0.00000000
        0.00000000     5.50899976     0.00000000
        0.00000000     0.00000000     9.26300011
PRIMCOORD
23 1
Ti      1.90572100     3.17822401     3.31757702    -1.09526001    -0.31454631     2.32567140
Ti      3.27143001     2.26419202     6.03666801     0.08628445     0.27809551    -3.17393933
Ti      4.41337197     1.95904498     1.57647401     1.12924075    -0.23337346    -0.90195464
Ti      0.89252601     3.40091302     7.75329599    -1.24400224     1.27361442     1.95238334
Ti      2.13759102     0.14192402     1.35654202    -0.68438575    -0.36892104    -0.87088799
Ti      3.20728701     5.33524901     7.78248699     0.00592922    -0.00669310     1.30938902
Ti      0.63585102     0.63472298     5.85213099    -0.36265166    -0.90086063    -3.18658196
Ti      4.43007598     4.81391200     3.47573498     1.41414146     0.35936528     1.88740254
O       1.64532399     2.00448500     4.87330702     0.15551529    -0.47050563    -1.03679439
O       3.55019799     3.47619801     4.43501601     0.25737909    -0.88159432     0.43552241
O       0.21334199     2.79301298     9.26096701    -0.54636065    -1.17414406    -0.13965466
O       3.41996398     1.02771000     0.17737900     0.36280824    -0.71010425    -0.44800049
O       1.74770000     4.77789302     8.89187598     1.18786681     0.24243943     1.42721629
O       4.04439102     0.52246400     5.10865701     0.06491935     1.10747996    -0.89455963
O       0.91169001     4.68809598     4.37404098     0.73064223     0.23323257     1.06754711
O       0.27994900     3.43901198     2.30151399     0.36811140    -1.09219012     1.22116390
O       5.15526102     2.27037202     6.61945298    -2.50663034     0.60156097    -0.16598817
O       2.59959298     1.70583599     2.36040698     0.83764130    -0.02625612     0.00840674
O       2.48002199     3.83527700     6.73600199     0.94236802    -0.14493854     0.71449261
O       0.32268599     0.44843501     2.26588100    -0.56286148     2.25717076    -1.82241891
O       5.03578502     5.11735002     7.27166902    -0.01607326    -1.94531306     0.96254682
O       2.11152100     1.07102898     7.03039700     0.80720816     0.78324162     0.87337707
O       3.09188297     4.23848201     2.20558400    -1.33183013     1.13324036    -1.54433857
