# total energy = -19960.57132247 eV

CRYSTAL
PRIMVEC
        5.93400000     0.00000000     0.00000000
        0.00000000     9.29699974     0.00000000
        0.00000000     0.00000000     4.64899994
PRIMCOORD
24 1
Ti      4.38271298     6.95882297     2.25359303     1.52162904    -0.80125812     0.54085978
Ti      4.50508098     2.20310301     2.28368898    -0.08705013     2.21177817     0.89094183
Ti      1.51244700     7.02756199     2.38213701    -1.65155978    -1.44924114    -0.11555262
Ti      1.48375401     2.34729598     2.29658402     0.54911045     0.73256593    -0.23342977
Ti      2.98432399     4.66246200     4.63167098    -0.12624790    -1.28231452     0.72145233
Ti      2.97725397     9.28816598     4.63467401    -0.19338920     0.59777476    -0.93256569
Ti      5.92357002     4.69030001     4.59247302     0.26803683    -0.50569298     0.12366059
Ti      5.92610500     9.26107999     0.11053200     0.31744420    -0.04368872    -0.73632462
O       4.54215202     5.49499397     0.94191301    -1.35112087     1.26546813     0.62037811
O       4.49965999     0.93700500     0.94670001    -0.63808196    -1.06389460    -1.16980789
O       1.44317998     5.51039600     1.00525998     0.63651488     1.07973749     0.20981469
O       1.46753901     0.92870703     0.85263901    -0.05382606     0.14477784     0.66855366
O       4.42742099     8.35655001     3.82231099    -0.04993856     0.57544138    -0.40524586
O       4.45761299     3.65111702     3.77524602    -0.43907413     0.87056248    -0.12128130
O       1.48136599     8.49566600     3.73482301     0.22053774    -1.08805295    -0.32892392
O       1.47553800     3.83849699     3.77266199     0.33834805    -0.95435682    -1.04847646
O       3.06384399     6.00222503     3.23523598    -0.89541632     1.30360018    -0.53273149
O       2.88744000     1.34893800     3.19257202     0.31415087     0.59344194    -0.20136707
O       0.03210000     6.25131500     3.37372802     0.29385869    -0.26257581    -0.91404808
O       0.03170698     1.40177498     3.17739400    -0.36487438     0.01204228     0.25308278
O       3.01035798     7.91980801     1.39848101    -0.62039251    -0.46945610     0.69003524
O       2.90333299     3.31762898     1.42432999    -0.03747333    -1.02682854     0.41014741
O       5.87550200     7.81207499     1.39382102     1.10746916     0.76736299    -0.02328752
O       5.78461602     3.24967299     1.29689501     0.94134524    -1.20719329     1.63411536
