# total energy = -19961.55803000 eV

CRYSTAL
PRIMVEC
        7.60600008     0.00000000     0.00000000
        0.00000000     7.60600008     0.00000000
       -1.89786986    -1.89786986     4.85670466
PRIMCOORD
24 1
Ti      3.78915401     6.62845100     1.21156798    -0.79260609    -0.74412150     0.33008914
Ti      3.82701998     2.80533302     1.20530898    -1.52652442     0.73817479    -0.87003746
Ti      0.02038502     6.64238498     1.21511897     0.64991676     1.41955492     0.53857484
Ti     -0.04403099     2.96956699     1.18065398     1.63680447    -1.53889734     0.68537357
Ti      5.69051920     2.91328523     3.63120783     1.41862007    -0.89648821    -0.56056369
Ti      5.68917223    -0.96493979     3.63834284     0.53056456     0.63662775     0.80055440
Ti      1.94759723     2.84903221     3.65163281    -1.56654803    -1.08160359    -1.14924060
Ti      1.88771723    -1.03040479     3.70287182    -0.47122065     1.06235528    -0.84647535
O       3.66782103     4.66621498     0.69088202     0.74621000     1.07939656     1.45538660
O       3.68638499     0.90289699     0.79233101     0.52253012     0.05326634     0.25977999
O       0.05493098     4.80879697     0.75047298    -0.68868258    -0.11951340     0.07667264
O       0.05614401     0.96861900     0.83626299    -0.57782094    -0.08102320    -1.02732090
O       5.83505222     4.76042123     4.05364082    -0.58012928     0.59990981    -0.21799261
O       5.89310725     1.02470322     4.03939781    -1.06935203    -1.10444400     0.02582828
O       1.82296525     4.68382621     4.13380282     0.47320786     0.86137850    -0.47471401
O       1.79688221     0.92289221     4.09853379     0.67404965    -0.91093576    -0.61457205
O       3.78619221     2.84140825     3.13818784     0.62518711    -0.13890699     1.33158099
O       3.75491820    -1.00769980     3.24349982     0.75394311    -0.00243844     0.33550518
O      -0.00683480     2.77974021     3.14585980    -0.40551763     0.62657859     0.13879026
O       0.04953723    -1.04800676     3.16474380    -0.79661470     0.10787402     0.26238889
O       5.66869900     6.61535101     1.66698798     0.17069689     0.07961450    -0.22028500
O       5.68771599     2.92811701     1.62842001    -0.11426167     0.07030684    -0.51581208
O       1.90705098     6.65693100     1.59445699     0.08138650    -0.21826231     0.44535431
O       1.86902500     3.00989299     1.66160900     0.30616116    -0.49840262    -0.18886534
