# total energy = -4984.39963700 eV

CRYSTAL
PRIMVEC
        4.19460693     0.00000000     0.00000000
        1.97392540     3.70112764     0.00000000
       -3.08430558    -1.85058747     5.53964739
PRIMCOORD
6 1
Ti      1.48034508     2.77598827     1.38491148     0.00092483    -0.00092483     0.00000000
Ti      1.60388152    -0.92544823     4.15473523    -0.00092483     0.00092483     0.00000000
O       0.49352482     0.92527720     0.90236318    -0.00054765    -0.00065820    -2.20182749
O       2.59070161     0.92526283     4.63728359     0.00054765     0.00065820     2.20182749
O      -0.49348495    -0.92525323     3.67218687    -0.00065820    -0.00054765    -2.20182749
O       3.57771130     2.77579316     1.86745984     0.00065820     0.00054765     2.20182749
