# total energy = -4984.92468401 eV

CRYSTAL
PRIMVEC
        3.52940184     0.00000000     0.00000000
        1.35745597     3.25791201     0.00000000
       -2.44346167    -1.62897785     4.60086823
PRIMCOORD
6 1
Ti      1.01799657     2.44355943     1.15021682     0.00086286    -0.00086286     0.00000000
Ti      1.42539967    -0.81462524     3.45065078    -0.00086286     0.00086286     0.00000000
O       0.33940069     0.81447374     0.74944373     0.00065255     0.00100350    -1.30641091
O       2.10399540     0.81446039     3.85142392    -0.00065255    -0.00100350     1.30641091
O      -0.33937020    -0.81445341     3.04987774     0.00100350     0.00065255    -1.30641091
O       2.78276623     2.44338750     1.55098995    -0.00100350    -0.00065255     1.30641091
