# total energy = -19517.57238612 eV

CRYSTAL
PRIMVEC
        5.93400000     0.00000000     0.00000000
        0.00000000     9.29699974     0.00000000
        0.00000000     0.00000000     4.64899994
PRIMCOORD
23 1
Ti      4.58521699     7.16396399     2.22660202    -0.25971031    -0.51366984     0.37041794
Ti      4.47116300     2.30194300     2.38581600    -0.20155528    -0.90234956     0.20573898
Ti      1.37362502     7.02136400     2.11901902    -0.23776542     0.28237948     0.82146725
Ti      1.47518800     2.27078203     2.32521299    -0.09817607    -0.65229914     0.65055439
Ti      3.01322501     4.46277898     0.20897702    -1.20682022    -1.40344927     0.10418602
Ti      2.93788901     9.24021701     4.63968500    -0.22855547     1.04458587    -0.44603668
Ti      5.91201301     4.63182899     0.02824198     0.54841394    -0.46884649    -1.05456278
Ti      5.89462001     0.09518502     4.60564800     0.62615204     0.93908961    -0.43411267
O       4.33769301     5.49111399     1.01540700     0.13789886     0.80429433    -0.04793824
O       4.39904598     0.89951502     0.79433098     1.09392458     0.95933731     1.30611523
O       1.44303001     5.52739999     0.85856501     1.09000236     1.25432368     1.05119489
O       1.50823602     0.95219800     0.84343101    -0.29512033    -0.13029610     0.47569823
O       4.50489900     8.44487001     3.59641300    -0.09030720    -0.46087813     0.47704369
O       4.43246702     3.53919598     3.96184598    -0.52119597     0.95327310    -0.95486976
O       1.56882099     8.45442399     3.73059701    -1.37414588    -1.84452192    -1.46676785
O       1.47129500     3.68937500     3.78146999     0.53675141     0.92949245     0.22710537
O       2.97686900     1.30373701     3.18114602     0.52533134     0.81364210    -0.47279776
O       5.88920901     6.06135598     3.28448799     0.19471049     0.38345730    -0.72498194
O       0.03299600     1.54881503     3.36446202    -0.49953982    -0.63230701    -0.96802790
O       3.00743899     7.98089999     1.39002698    -0.39031623    -2.04812277     1.09722819
O       2.93150200     3.19895199     1.59314299     0.94781722     1.37372062    -1.07560212
O       5.92004502     8.02111900     1.31358198     0.70962551    -0.81175413     0.29272123
O       0.08967401     3.19811600     1.39685400    -1.00742004     0.13089825     0.56622577
