# total energy = -19936.99373933 eV

CRYSTAL
PRIMVEC
        6.00387291     0.00000000     0.00000000
        0.00003291     6.38993637     0.00000000
        0.00000000     0.00000000    10.74561233
PRIMCOORD
24 1
Ti      2.17613466     3.78667038     3.98654561     0.04832750    -0.78948889     0.61785380
Ti      3.82777115     2.60326605     6.75906703    -0.04832750     0.78948889    -0.61785380
Ti      5.17796601     2.60326825     1.38621777     0.04885483     0.78967529    -0.61797850
Ti      0.82593981     3.78666843     9.35939499    -0.04885483    -0.78967529     0.61797850
Ti      2.17611833     0.59170232     1.38626086     0.04832750    -0.78948889    -0.61785380
Ti      3.82778748     5.79823430     9.35935190    -0.04832750     0.78948889     0.61785380
Ti      0.82592348     0.59169994     6.75902393    -0.04885483    -0.78967529    -0.61797850
Ti      5.17798234     5.79823668     3.98658870     0.04885483     0.78967529     0.61797850
O       1.90027527     2.25000528     5.48340383     1.31582732     1.20546499     0.03458212
O       4.10363054     4.13993121     5.26220880    -1.31582732    -1.20546499    -0.03458212
O       1.10171946     2.25003102     0.11063211    -1.31629989     1.20591828     0.03410390
O       4.90218641     4.13990547    10.63498022     1.31629989    -1.20591828    -0.03410390
O       4.10361421     0.94496296     0.11059724    -1.31582732    -1.20546499     0.03458212
O       1.90029160     5.44497347    10.63501509     1.31582732     1.20546499    -0.03458212
O       4.90217008     0.94493723     5.48343870     1.31629989    -1.20591828     0.03410390
O       1.10173567     5.44499926     5.26217394    -1.31629989     1.20591828    -0.03410390
O       0.21815458     3.88672154     2.90265804     0.46317284    -0.27009294     0.31383874
O       5.78575123     2.50321489     7.84295460    -0.46317284     0.27009294    -0.31383874
O       3.22009585     2.50315534     2.47018244     0.46264216     0.27027935    -0.31391587
O       2.78380997     3.88678109     8.27543001    -0.46264216    -0.27027935     0.31391587
O       0.21813825     0.69175329     2.47014813     0.46317284    -0.27009294    -0.31383874
O       5.78576756     5.69818314     8.27546432    -0.46317284     0.27009294     0.31383874
O       2.78379364     0.69181285     7.84298885    -0.46264216    -0.27027935    -0.31391587
O       3.22011218     5.69812358     2.90262372     0.46264216     0.27027935     0.31391587
