# total energy = -19958.12076944 eV

CRYSTAL
PRIMVEC
        5.46041889     0.00000000     0.00000000
        0.00002993     5.81153696     0.00000000
        0.00000000     0.00000000     9.77294914
PRIMCOORD
24 1
Ti      1.97915695     3.44391142     3.62569450     0.02014332    -0.41433574     0.35011239
Ti      3.48129187     2.36762559     6.14725492    -0.02014332     0.41433574    -0.35011239
Ti      4.70927081     2.36762759     1.26074116     0.02126997     0.41448692    -0.35014787
Ti      0.75117801     3.44390965     8.51220837    -0.02126997    -0.41448692     0.35014787
Ti      1.97914210     0.53814306     1.26078035     0.02014332    -0.41433574    -0.35011239
Ti      3.48130672     5.27339412     8.51216918    -0.02014332     0.41433574     0.35011239
Ti      0.75116316     0.53814089     6.14721573    -0.02126997    -0.41448692    -0.35014787
Ti      4.70928566     5.27339629     3.62573369     0.02126997     0.41448692     0.35014787
O       1.72826759     2.04634101     4.98706124     0.71418922     0.64136295     0.04233683
O       3.73218123     3.76519606     4.78588818    -0.71418922    -0.64136295    -0.04233683
O       1.00199486     2.04636442     0.10061799    -0.71430132     0.64176404     0.04175833
O       4.45845402     3.76517265     9.67233115     0.71430132    -0.64176404    -0.04175833
O       3.73216638     0.85942752     0.10058628    -0.71418922    -0.64136295     0.04233683
O       1.72828245     4.95210949     9.67236286     0.71418922     0.64136295    -0.04233683
O       4.45843917     0.85940412     4.98709295     0.71430132    -0.64176404     0.04175833
O       1.00200960     4.95213295     4.78585647    -0.71430132     0.64176404    -0.04175833
O       0.19840783     3.53490623     2.63991744     0.24798942    -0.14628991     0.17181866
O       5.26204099     2.27663078     7.13303198    -0.24798942     0.14628991    -0.17181866
O       2.92862165     2.27657662     2.24658834     0.24798196     0.14631408    -0.17211177
O       2.53182717     3.53496039     7.52636091    -0.24798196    -0.14631408     0.17211177
O       0.19839298     0.62913769     2.24655713     0.24798942    -0.14628991    -0.17181866
O       5.26205584     5.18239932     7.52639212    -0.24798942     0.14628991     0.17181866
O       2.53181231     0.62919186     7.13306314    -0.24798196    -0.14631408    -0.17211177
O       2.92863651     5.18234516     2.63988623     0.24798196     0.14631408     0.17211177
