# total energy = -4985.32787609 eV

CRYSTAL
PRIMVEC
        3.90506715     0.00000000     0.00000000
        0.00000000     2.94601922     0.00000000
        0.00000000    -0.00007789     5.16505610
PRIMCOORD
6 1
Ti      1.95253353     1.47297051     2.58252810     0.00000000     0.00000000     0.00000000
Ti      0.00000000     0.00000000     0.00000000     0.00000000     0.00000000     0.00000000
O       1.95253353     0.57412052     1.00659338     0.00000000    -1.34277995     0.05441536
O       1.95253353     2.37182051     4.15846282     0.00000000     1.34277995    -0.05441536
O       0.00000000     0.89881903     3.58912255    -0.00000000     1.34315662     0.05285676
O       0.00000000     2.04712200     1.57593365    -0.00000000    -1.34315662    -0.05285676
