# total energy = -19925.16738114 eV

CRYSTAL
PRIMVEC
        6.54862105     0.00000000     0.00000000
        0.00003259     6.30593074     0.00000000
        0.00000000     0.00000000    11.19044397
PRIMCOORD
24 1
Ti      2.37357951     3.73688866     4.15157500     0.20960541    -0.86685367     0.72595536
Ti      4.17507413     2.56904195     7.03886936    -0.20960541     0.86685367    -0.72595536
Ti      5.64777590     2.56904412     1.44360248     0.20974399     0.86685187    -0.72624692
Ti      0.90087780     3.73688681     9.74684207    -0.20974399    -0.86685187     0.72624692
Ti      2.37356328     0.58392342     1.44364737     0.20960541    -0.86685367    -0.72595536
Ti      4.17509043     5.72200739     9.74679718    -0.20960541     0.86685367     0.72595536
Ti      0.90086150     0.58392112     7.03882453    -0.20974399    -0.86685187    -0.72624692
Ti      5.64779214     5.72200975     4.15161989     0.20974399     0.86685187     0.72624692
O       2.07269140     2.22042534     5.71039805     1.16505752     1.33852554    -0.41386780
O       4.47596230     4.08550528     5.48004631    -1.16505752    -1.33852554     0.41386780
O       1.20168045     2.22045084     0.11521190    -1.16428799     1.33846178    -0.41415294
O       5.34697332     4.08547984    11.07523220     1.16428799    -1.33846178     0.41415294
O       4.47594600     0.93253984     0.11517562    -1.16505752    -1.33852554    -0.41386780
O       2.07270770     5.37339077    11.07526849     1.16505752     1.33852554     0.41386780
O       5.34695702     0.93251441     5.71043440     1.16428799    -1.33846178    -0.41415294
O       1.20169655     5.37341627     5.48001002    -1.16428799     1.33846178     0.41415294
O       0.23794648     3.83562456     3.02281817    -0.15654296    -0.12545008     0.13401880
O       6.31070722     2.47030612     8.16762619     0.15654296     0.12545008    -0.13401880
O       3.51226281     2.47024742     2.57243959    -0.15723921     0.12552747    -0.13393138
O       3.03639083     3.83568325     8.61800464     0.15723921    -0.12552747     0.13393138
O       0.23793019     0.68265913     2.57240382    -0.15654296    -0.12545008    -0.13401880
O       6.31072345     5.62327155     8.61804035     0.15654296     0.12545008     0.13401880
O       3.03637460     0.68271782     8.16766190     0.15723921    -0.12552747    -0.13393138
O       3.51227910     5.62321279     3.02278246    -0.15723921     0.12552747     0.13393138
