# total energy = -4988.01256930 eV

CRYSTAL
PRIMVEC
        3.12000376     0.00000000     0.00000000
        1.43430128     4.67343307     0.00000000
       -0.00000955    -0.00006407     4.94577233
PRIMCOORD
6 1
Ti      2.27714781     2.33668455     2.47288616     0.00000000     0.00000000     0.00000000
Ti      0.00000000     0.00000000     0.00000000     0.00000000     0.00000000     0.00000000
O       1.83952423     0.91077088     0.96385816    -0.52149088     0.34863503     0.12895116
O       2.71477145     3.76259820     3.98191411     0.52149088    -0.34863503    -0.12895116
O       0.43761966     1.42588773     3.43674542     0.52109056    -0.34817558     0.12891670
O       0.99667226     3.24748113     1.50902690    -0.52109056     0.34817558    -0.12891670
