# total energy = -19959.00126600 eV

CRYSTAL
PRIMVEC
        7.60600008     0.00000000     0.00000000
        0.00000000     7.60600008     0.00000000
       -1.89786986    -1.89786986     4.85670466
PRIMCOORD
24 1
Ti      3.69212598     6.57276801     1.28821798     2.52314300    -0.71252237     0.54249397
Ti      3.68885598     2.85935402     1.16748598     1.25016749     1.08472569     0.17468236
Ti      0.08510398     6.61142700     1.24266699    -2.21290637     0.94606167     0.56025773
Ti      0.00760401     2.92180498     1.17302001    -1.33682476    -0.70801651    -1.45797364
Ti      5.70857123     2.84669923     3.63267381    -1.46365630     1.10773244     0.07066448
Ti      5.88144820    -0.89259878     3.69816781    -0.31293114    -2.05351000    -1.16322227
Ti      1.71394622     2.89721221     3.53399781     2.52763986     0.70182323     2.02162908
Ti      2.00484220    -0.92971077     3.71915482    -0.32508526    -0.46044541    -0.02806694
O       3.74669701     4.74994902     0.84847301     0.33535220    -0.86924942    -0.60176306
O       3.59971999     0.92960398     0.68848098     0.23549668     0.90718889     2.11856896
O       0.00468200     4.82687901     0.65901898    -0.76954972    -3.48267262     0.27170811
O       0.07489102     0.92490801     0.77451901     0.27497444     1.13409808     0.56659576
O      -1.57284078     4.64874224     4.25219882    -0.15688877     0.83381652    -3.40388731
O       5.98402524     0.88619621     3.94605581    -0.75467562     2.02767709     0.67859742
O       1.70618022     4.69433123     4.33118281     0.26710172    -0.25923286    -3.52410211
O       1.62402424     0.96660024     4.02596681     0.91028013     0.27437229    -0.15019208
O       3.70928423     2.81299820     3.25130281     0.81442011    -0.28600988    -1.09067574
O       3.90913924    -1.11239080     3.44928479    -1.17405484     0.65976563    -0.85616456
O      -0.05325375     2.71673520     3.05187479    -0.86937592     0.31771314    -0.00242712
O       0.11483421    -1.01075580     3.23115782    -0.29809458    -0.16927558     0.02543542
O       5.78104301     6.46338702     1.60234099    -0.38552035     0.89138380     1.02980459
O       5.64143399     2.93963000     1.24326401     0.19802695    -0.35124805     1.54874750
O       1.91822398     6.43029100     1.63683001     0.56700302     0.50889401     1.48681834
O       1.81041401     3.42486501     1.59125298     0.15595778    -2.04306978     1.18247161
