# total energy = -19930.06670947 eV

CRYSTAL
PRIMVEC
        6.13785232     0.00000000     0.00000000
        1.29360249     6.40316740     0.00000000
        0.00000000     0.00000000    11.04129432
PRIMCOORD
24 1
Ti      2.99126379     3.79451108     4.09624158    -0.09673085    -1.78250689     0.79225334
Ti      4.44019072     2.60865648     6.94505317     0.09673085     1.78250689    -0.79225334
Ti      5.82051622     2.60865878     1.42436168    -0.02889278    -0.22832459    -0.25383662
Ti      1.61093832     3.79450903     9.61693320     0.02889278     0.22832459     0.25383662
Ti      2.34446270     0.59292761     1.42440595    -0.09673085    -1.78250689    -0.79225334
Ti      5.08699184     5.81024013     9.61688893     0.09673085     1.78250689     0.79225334
Ti      0.96413712     0.59292513     6.94500890     0.02889278     0.22832459    -0.25383662
Ti      6.46731742     5.81024261     4.09628585    -0.02889278    -0.22832459     0.25383662
O       2.39816833     2.25466412     5.63428814     1.72503345     1.89939982    -0.52427770
O       5.03328619     4.14850344     5.40700661    -1.72503345    -1.89939982     0.52427770
O       1.58179763     2.25468991     0.11367633    -0.85994331     0.34247415     0.76329473
O       5.84965695     4.14847770    10.92761811     0.85994331    -0.34247415    -0.76329473
O       4.38648507     0.94691978     0.11364049    -1.72503345    -1.89939982    -0.52427770
O       3.04496945     5.45624778    10.92765396     1.72503345     1.89939982     0.52427770
O       5.20285584     0.94689405     5.63432399     0.85994331    -0.34247415     0.76329473
O       2.22859862     5.45627357     5.40697077    -0.85994331     0.34247415    -0.76329473
O       1.00984467     3.89476932     2.98252916     0.44960255     1.17835604     1.36469578
O       6.42160985     2.50839824     8.05876559    -0.44960255    -1.17835604    -1.36469578
O       3.79868863     2.50833844     2.53815334     0.68214786     1.36976292     0.53787164
O       3.63276589     3.89482912     8.50314123    -0.68214786    -1.36976292    -0.53787164
O       0.36304356     0.69318566     2.53811806     0.44960255     1.17835604    -1.36469578
O       7.06841097     5.70998196     8.50317651    -0.44960255    -1.17835604     1.36469578
O       2.98596477     0.69324541     8.05880081    -0.68214786    -1.36976292     0.53787164
O       4.44548975     5.70992215     2.98249388     0.68214786     1.36976292    -0.53787164
