# total energy = -19919.74915992 eV

CRYSTAL
PRIMVEC
        7.45308373     0.00000000     0.00000000
        0.00002933     5.28822320     0.00000000
        0.00000000     0.00000000    11.57932387
PRIMCOORD
24 1
Ti      2.70140188     3.13379615     4.29584656     0.57660018    -0.52344980     1.41062470
Ti      4.75171131     2.15442705     7.28347743    -0.57660018     0.52344980    -1.41062470
Ti      6.42781527     2.15442889     1.49376914     0.57626619     0.52331096    -1.41083348
Ti      1.02529793     3.13379456    10.08555492    -0.57626619    -0.52331096     1.41083348
Ti      2.70138722     0.48968468     1.49381556     0.57616566    -0.56265605    -1.41049358
Ti      4.75172598     4.79853871    10.08550850    -0.57616566     0.56265605     1.41049358
Ti      1.02528326     0.48968271     7.28343095    -0.57606153    -0.56267019    -1.41091344
Ti      6.42782993     4.79854068     4.29589298     0.57606153     0.56267019     1.41091344
O       2.35895845     1.86207331     5.90884035     0.79585340     1.36950786    -1.44470083
O       5.09415474     3.42614995     5.67048364    -0.79585340    -1.36950786     1.44470083
O       1.36764781     1.86209462     0.11921563    -0.79637302     1.37031005    -1.44606274
O       6.08546551     3.42612864    11.46010798     0.79637302    -1.37031005     1.44606274
O       5.09414014     0.78203829     0.11917804    -0.79615139    -1.37074842    -1.44483556
O       2.35897305     4.50618491    11.46014557     0.79615139     1.37074842     1.44483556
O       6.08545085     0.78201704     5.90887788     0.79646378    -1.37096362    -1.44551973
O       1.36766228     4.50620629     5.67044605    -0.79646378     1.37096362     1.44551973
O       0.27080576     3.21659712     3.12786428    -1.85484053     0.53244712     0.24284490
O       7.18230743     2.07162614     8.45145972     1.85484053    -0.53244712    -0.24284490
O       3.99735596     2.07157683     2.66183455    -1.85373547    -0.53214270    -0.24340591
O       3.45575723     3.21664643     8.91748925     1.85373547     0.53214270     0.24340591
O       0.27079109     0.57248546     2.66179753    -1.85469783     0.53181617    -0.24312978
O       7.18232210     4.71573774     8.91752621     1.85469783    -0.53181617     0.24312978
O       3.45574263     0.57253477     8.45149661     1.85354881     0.53157012    -0.24266055
O       3.99737056     4.71568850     3.12782732    -1.85354881    -0.53157012     0.24266055
