# total energy = -19867.64092118 eV

CRYSTAL
PRIMVEC
       10.05389924     0.00000000     0.00000000
        0.00003126     3.56679638     0.00000000
        0.00000000     0.00000000    15.99490571
PRIMCOORD
24 1
Ti      3.64407320     2.11368011     5.93399607     0.30711607     0.00408574     1.90317086
Ti      6.40985689     1.45311593    10.06091011    -0.30711607    -0.00408574    -1.90317086
Ti      8.67085132     1.45311707     2.06339312     0.30701503    -0.00396541    -1.90416331
Ti      1.38307883     2.11367910    13.93151321    -0.30701503     0.00396541     1.90416331
Ti      3.64405798     0.33028199     2.06345726     0.30711607     0.00408574    -1.90317086
Ti      6.40987217     3.23651418    13.93144906    -0.30711607    -0.00408574     1.90317086
Ti      1.38306355     0.33028077    10.06084597    -0.30701503     0.00396541    -1.90416331
Ti      8.67086661     3.23651540     5.93406022     0.30701503    -0.00396541     1.90416331
O       3.18213344     1.25592953     8.16207814     0.15279378     0.55062611    -2.12103080
O       6.87179672     2.31086657     7.83282804    -0.15279378    -0.55062611     2.12103080
O       1.84489667     1.25594401     0.16467655    -0.15299535     0.55067368    -2.12173888
O       8.20903356     2.31085209    15.83022916     0.15299535    -0.55067368     2.12173888
O       6.87178143     0.52746832     0.16462460    -0.15279378    -0.55062611    -2.12103080
O       3.18214872     3.03932772    15.83028110     0.15279378     0.55062611     2.12103080
O       8.20901827     0.52745391     8.16213002     0.15299535    -0.55067368    -2.12173888
O       1.84491175     3.03934220     7.83277617    -0.15299535     0.55067368     2.12173888
O       0.36530018     2.16952774     4.32062315    -1.57019077     0.52447310     0.20384536
O       9.68862998     1.39726829    11.67428297     1.57019077    -0.52447310    -0.20384536
O       5.39226309     1.39723523     3.67688076    -1.57015477    -0.52445947    -0.20419657
O       4.66166706     2.16956087    12.31802515     1.57015477     0.52445947     0.20419657
O       0.36528489     0.38612955     3.67682971    -1.57019077     0.52447310    -0.20384536
O       9.68864526     3.18066655    12.31807620     1.57019077    -0.52447310     0.20384536
O       4.66165184     0.38616262    11.67433396     1.57015477     0.52445947    -0.20419657
O       5.39227831     3.18063342     4.32057209    -1.57015477    -0.52445947     0.20419657
