# total energy = -39032.86920033 eV

CRYSTAL
PRIMVEC
        7.60600008     0.00000000     0.00000000
        0.00000000     7.60600008     0.00000000
       -3.79573973    -3.79573973     9.71340985
PRIMCOORD
46 1
Ti      1.82245147     4.86053146     6.28444160    -0.03674468     0.80753109    -0.57103168
Ti      4.03832897     6.84335100     1.28526502    -1.65603633     0.82133612     0.01707522
Ti      1.73514246     0.83276746     5.89858561     0.29819948     0.38533754     2.89886744
Ti      3.74160199     2.98731702     1.26688002     1.43492832    -2.52298590    -1.22655807
Ti     -2.01315055     4.73999044     6.15051462    -0.23185317     0.74065256     0.25451668
Ti      0.22936500     6.48486701     1.22304700     0.48235790     1.62321439    -1.15850815
Ti     -2.09312955     1.06257146     5.94099663    -0.69522604    -1.74035544    -0.71754425
Ti      0.01273301     2.90417401     1.15827899    -0.87506166    -0.34473724     0.04648942
Ti      3.61278844     0.96997047     8.33719662    -1.75386530     0.01020548     0.31794736
Ti      5.68250899     2.89386601     3.51864802     1.23144549    -1.87974142    -1.16097049
Ti      3.78017245    -2.83275556     8.60242164     1.12752351    -0.15433027     0.22070383
Ti      5.98716401    -0.97617100     3.71982502    -0.52670122     1.23239628     0.15434698
Ti     -0.46096757     0.94561244     8.35477965     2.25863886    -0.17189734     0.84222455
Ti      2.01512300     2.82563501     3.59598500    -1.22575846     0.13442452     0.31886293
Ti      0.05659344    -2.95901154     8.58985765    -2.10530464     0.33679407     1.63037851
Ti      2.22184101    -1.11452000     3.74317100    -1.37466293     0.11322525    -0.25142801
O       2.13213245    -0.92323756     5.62762061    -1.03791668    -0.85841916    -0.26911772
O       3.77637200     1.04784102     0.83405701     0.04239159    -0.74320130    -0.97247797
O      -1.80011358     2.75605947     5.41231262    -0.34134930     2.59689357     1.97865771
O      -0.06390800     4.82494498     0.58684302    -0.28286028    -1.88659341     1.38245697
O      -2.13591057    -0.91907256     5.81238560     0.73601686    -1.27318479    -1.90325879
O       0.02500601     1.01246298     0.73474499     0.45318641    -0.27669014     1.27562117
O       4.09424745     2.81713346     8.91406465    -1.69263651     1.39724699    -0.39174911
O       5.34476600     4.56446700     4.01629102     0.28581139     2.94256258     0.04404096
O       3.96986847    -0.85324757     8.83998163    -0.22949495    -0.78533655     0.57498861
O      -1.38718101     0.97541200     4.03485000    -1.00804919    -2.43027626    -0.30296554
O      -0.14275657     2.64220746     9.11257560     0.91894732     1.03545665    -0.82804054
O       2.00002499     4.54105900     4.40929599     0.55306815     0.01072073    -1.32912893
O      -0.05507555    -0.70573957     8.99949365    -1.00344691    -0.65762030     0.89405852
O       1.88462101     1.05454998     4.06169099    -1.58000287    -1.38602489    -0.48331538
O       1.88363844     0.52448546     7.86299464    -0.32153971     1.47941228     0.14123641
O       3.74711601     2.23622299     3.16876100     2.11545227     2.43926612    -0.11949129
O       1.82371044    -2.67074853     8.32578560    -0.01398732    -0.81846857    -0.39592612
O       3.91727502    -0.73347698     3.38469601     1.13544303    -0.51718171    -0.84761949
O      -2.18463456     1.02429745     7.89115063     0.21028032    -0.10302209    -0.12321451
O       0.05727100     3.10315202     3.11486202    -1.04887601    -0.19512135    -0.18650995
O      -1.97942354    -2.85530354     8.09289163     0.81650245    -0.05835506    -0.44508435
O       0.18816702     6.34963100     3.14543799    -0.59864534     0.12754656     1.37045737
O       3.60989744     4.94329843     6.64755562     1.67967738    -1.49413854    -0.55682813
O       5.81057899     6.69015598     1.56693601     0.74336354    -0.49231604     1.10402748
O       3.54288244     1.32197944     6.20888160     0.52857684     0.20615190     0.29190285
O       5.69761600     2.71586999     1.42174502     0.13074913     1.43817640     1.21211927
O      -0.08562654     4.69992347     6.57734560     0.43255176    -0.06544180    -0.40748683
O       2.10003701     6.48428597     1.50864502    -0.18991126    -0.34530391     1.33483678
O      -0.29095853     0.85376045     6.57258264     2.58369121     0.43418389    -1.97252151
O       1.95252001     2.92222002     1.72082102    -0.36887271     0.88800897    -1.68504019
