# total energy = -19921.70002654 eV

CRYSTAL
PRIMVEC
        6.31140180     0.00000000     0.00000000
        1.65350684     6.51054751     0.00000000
        0.00000000     0.00000000    11.38670219
PRIMCOORD
24 1
Ti      3.26744628     3.85814461     4.22438551    -0.18271603    -1.91586492     0.74157662
Ti      4.69746254     2.65240332     7.16231732     0.18271603     1.91586492    -0.74157662
Ti      6.11681729     2.65240557     1.46892044     0.02063722    -0.45903336    -0.17948209
Ti      1.84809156     3.85814262     9.91778252    -0.02063722     0.45903336     0.17948209
Ti      2.44069300     0.60287091     1.46896610    -0.18271603    -1.91586492    -0.74157662
Ti      5.52421585     5.90767728     9.91773687     0.18271603     1.91586492     0.74157662
Ti      1.02133815     0.60286841     7.16227167    -0.02063722     0.45903336    -0.17948209
Ti      6.94357070     5.90767971     4.22443117     0.02063722    -0.45903336     0.17948209
O       2.57982639     2.29247460     5.81054724     1.80151198     2.01046843    -0.61196700
O       5.38508236     4.21807335     5.57615559    -1.80151198    -2.01046843     0.61196700
O       1.74037387     2.29250087     0.11723251    -0.75425962     0.11332321     0.95913342
O       6.22453503     4.21804718    11.26947000     0.75425962    -0.11332321    -0.95913342
O       4.55832905     0.96279945     0.11719557    -1.80151198    -2.01046843    -0.61196700
O       3.40657977     5.54774848    11.26950695     1.80151198     2.01046843     0.61196700
O       5.39778172     0.96277322     5.81058419     0.75425962    -0.11332321     0.95913342
O       2.56712705     5.54777478     5.57611865    -0.75425962     0.11332321    -0.95913342
O       1.23506442     3.96008420     3.07583252     0.50338336     1.59546009     1.69842381
O       6.72984434     2.55046374     8.31087032    -0.50338336    -1.59546009    -1.69842381
O       4.03275618     2.55040302     2.61755514     0.67960632     1.62582226     0.81063030
O       3.93215265     3.96014497     8.76914750    -0.67960632    -1.62582226    -0.81063030
O       0.40831111     0.70481031     2.61751877     0.50338336     1.59546009    -1.69842381
O       7.55659772     5.80573769     8.76918387    -0.50338336    -1.59546009     1.69842381
O       3.10539933     0.70487102     8.31090662    -0.67960632    -1.62582226     0.81063030
O       4.85950949     5.80567692     3.07579615     0.67960632     1.62582226    -0.81063030
