# total energy = -19073.75039102 eV

CRYSTAL
PRIMVEC
        5.17600016     0.00000000     0.00000000
        0.00000000     5.50899976     0.00000000
        0.00000000     0.00000000     9.26300011
PRIMCOORD
22 1
Ti      1.70555299     3.40281398     3.35667099     1.03160050     0.21719582    -0.39123977
Ti      3.99926903     2.24878598     5.81994299    -2.26437217    -1.27445646    -0.39460020
Ti      4.40003099     2.14730100     1.31747201    -0.07418278    -0.22929184    -0.74733383
Ti      0.71785799     3.24754999     8.03874399    -0.76912908    -0.14619581     1.24134115
Ti      1.76695401     0.44966202     1.35725000    -0.24969586     1.94313636    -0.43685707
Ti      3.08425399     5.11415902     8.07536702     0.00121048     0.99722510     0.22735374
Ti      0.95171798     0.17882101     6.05628800     0.21340318    -1.06586252    -2.36017408
Ti      4.26481800     4.89370701     3.44152599     0.63851545     0.28051080     0.99375951
O       3.45446702     3.25776798     4.37943298     0.04705095     0.88736876     0.68834242
O       0.79287199     2.02853399     0.31845501     0.25140436     0.57862004    -1.37788066
O       4.15509903     3.77769801     8.59967103     0.17206163    -0.90713181     0.67674211
O       3.33401199     0.86717498     0.17782599     0.52456463     0.49257855    -1.01365111
O       1.53469102     4.79752100     0.01257399    -0.73386433    -1.41388152    -2.10916001
O       4.45444502     0.78222198     4.79793900     0.27534160     0.16478643     0.07078301
O       1.12239500     5.02339301     4.21322502     0.11875004    -1.24176178     1.41923070
O       0.05496702     3.64685000     2.39787998    -0.01013889    -1.72090580    -0.36017312
O       0.29454302     1.69402899     6.91048798    -0.39220111     1.13591303     0.76504951
O       2.68828801     2.02828502     2.15013099    -1.04325583     0.58379824     1.61960353
O       1.88921200     4.09330800     6.87913200     0.42685650    -0.05715616    -0.68222396
O       5.10986999     0.64887000     2.08905399     0.19570293     0.03398537     0.99199650
O       2.66784398     0.94502802     6.46749402     0.58128730     0.35259530     1.43336638
O       2.66690702     4.67774200     2.36532801     1.05909049     0.38893041    -0.25427474
