# total energy = -19517.22885081 eV

CRYSTAL
PRIMVEC
        7.60600008     0.00000000     0.00000000
        0.00000000     7.60600008     0.00000000
       -1.89786986    -1.89786986     4.85670466
PRIMCOORD
23 1
Ti      3.83453202     6.75690201     1.21348202    -0.75152653     0.05355867    -0.08245557
Ti      3.71265202     2.98964900     1.11478400     0.01915704    -0.27499090     2.02629975
Ti     -0.17619602     6.55023898     1.19180602     2.45528307    -1.03999362    -0.09646371
Ti      0.04800500     2.63771798     1.24855499    -0.37218120     0.70598277     1.47679798
Ti      5.69176922     2.76955222     3.59115483    -1.34170266     1.22514962     2.57066317
Ti      5.71095523    -1.00128078     3.73996180     0.36965715    -1.04048033    -1.06749826
Ti      1.95745925     2.91046720     3.66369582     1.09249273     0.47209071    -0.22917588
Ti      1.82345024    -0.89359776     3.57743279     0.36489598    -0.96870873    -1.05461111
O       4.21091902     4.81477303     0.77191302    -1.24827156    -0.81045367     0.20498179
O       3.78365602     1.12560700     0.88498000    -0.03762297    -1.14676771    -1.03557003
O      -0.25198600     4.83041000     0.80870698     0.53553142    -1.46274124    -0.52677218
O       0.28856898     0.77813001     0.82393898    -0.52698867     2.22332757    -0.41613757
O       5.87327421     4.70245224     3.91877884    -0.82100728    -0.53996966     0.36246217
O       5.50466125     0.89365925     4.36262483     0.42112191     0.02651065    -3.66974822
O       1.99249025     4.71903121     4.07104282    -0.61051227     1.85853264     0.41318646
O       1.84841624     0.96882723     3.90577383    -0.63234223     0.15086596     0.84269480
O       3.74196421     2.83993825     3.15057582     1.03309457    -0.21079968    -0.78398801
O       3.87183822    -0.99798977     3.11302482    -0.34805833    -0.10686023     1.36199972
O       0.02546422     6.32121424     3.13052080    -0.21268662     1.47566695     1.21220746
O       5.75734503     6.91449300     1.66549797    -1.80073139     0.64535767     0.25944472
O       5.82535102     2.83218400     1.81186703     0.19999102    -0.66318854    -1.58443803
O       1.88273201     6.67099500     1.61117698     1.61090677    -0.35321134     0.47160940
O       1.79135601     3.13610198     1.68102499     0.60150004    -0.21887758    -0.65548834
