# total energy = -19070.88179299 eV

CRYSTAL
PRIMVEC
        5.17600016     0.00000000     0.00000000
        0.00000000     5.50899976     0.00000000
        0.00000000     0.00000000     9.26300011
PRIMCOORD
22 1
Ti      1.67336202     3.42669300     3.48231302     1.36440114     0.29077876    -0.84597296
Ti      3.89959600     2.33701703     5.89948002    -1.36422039     0.15051192    -0.06055439
Ti      4.16611200     2.37421898     1.38769198     2.44359021    -2.67186774     0.36681942
Ti      1.03283498     3.03896202     8.04521403    -0.26884313    -1.96546743    -0.79287529
Ti      1.73683101     0.39932599     1.09904500    -0.05697181     2.39543523     0.35706620
Ti      3.25762198     5.13051600     7.78917500    -0.23832901     1.55012098     0.04892708
Ti      0.74441401     5.48413499     6.25729000    -0.37538171     0.06369499    -1.36896562
Ti      4.36383601     4.98968701     3.46962102     0.96289392     2.33570539    -0.46081822
O       3.49587202     3.64358201     4.28079101    -0.17187702    -2.04397558     1.80961969
O       0.74203203     2.03051597     0.36403003     0.75364589    -0.04163877    -1.55362951
O       4.56851198     3.85028102     7.99630101    -0.19722991     0.66826030     0.12523283
O       3.42572799     0.84527202     0.29981299    -0.67650300    -0.41499832    -1.50957390
O       1.68729198     4.64732901     8.74087002    -0.17591392     1.19836463     2.14349530
O       4.34491200     0.75756200     5.07115798    -0.04294001    -0.18355215    -1.05079303
O       0.93709602     4.85686701     4.42606900    -0.29616265    -0.68656733     1.07381906
O       0.13996400     3.52755498     2.42574402    -0.91657419     1.45265866    -0.59165117
O       5.04212101     1.49938199     7.16294601     0.55337565    -0.55779461     0.73961949
O       2.66042698     2.04513799     2.24449499    -1.60248795     0.92428185     1.11321121
O       2.39977798     3.76946798     6.57599102    -0.75086730    -1.48560838     1.11764533
O       0.01810098     1.05449299     2.49434502    -0.68755515    -1.50427666    -0.95227500
O       2.35442299     0.77856499     6.52995201     0.66175952     1.54629184     0.69298121
O       2.45076801     4.99605698     2.50914500     1.08219032    -1.02035784    -0.40132776
