# total energy = -19937.02656294 eV

CRYSTAL
PRIMVEC
        5.25502405     0.00000000     0.00000000
        2.63199167     4.93493095     0.00000000
        0.00000000     0.00000000     9.73280770
PRIMCOORD
24 1
Ti      3.46440932     2.92443551     3.61080225     3.62523340    -4.63212123     1.09803089
Ti      4.42260654     2.01049556     6.12200555    -3.62523340     4.63212123    -1.09803089
Ti      5.60439573     2.01049732     1.25556276    -7.71448348     1.30980040     1.70390772
Ti      2.28262029     2.92443398     8.47724509     7.71448348    -1.30980040    -1.70390772
Ti      2.14841368     0.45697020     1.25560180     3.62523340    -4.63212123    -1.09803089
Ti      5.73860227     4.47796106     8.47720610    -3.62523340     4.63212123     1.09803089
Ti      0.96662440     0.45696831     6.12196651     7.71448348    -1.30980040     1.70390772
Ti      6.92039155     4.47796291     3.61084124    -7.71448348     1.30980040    -1.70390772
O       2.59001735     1.73767312     4.96657729     0.10475372     1.20441830    -1.41204061
O       5.29699857     3.19725800     4.76623051    -0.10475372    -1.20441830     1.41204061
O       1.89107413     1.73769298     0.10020471     1.86120479    -0.51921571    -0.68038640
O       5.99594185     3.19723817     9.63260277    -1.86120479     0.51921571     0.68038640
O       3.98100283     0.72979250     0.10017313    -0.10475372    -1.20441830    -1.41204061
O       3.90601307     4.20513857     9.63263436     0.10475372     1.20441830     1.41204061
O       4.67994612     0.72977267     4.96660882    -1.86120479     0.51921571    -0.68038640
O       3.20706975     4.20515846     4.76619892     1.86120479    -0.51921571     0.68038640
O       1.79185369     3.00170472     2.62907417     0.51678550    -0.94440485    -0.64816146
O       6.09516223     1.93322640     7.10373358    -0.51678550     0.94440485     0.64816146
O       3.84949037     1.93318031     2.23736064     2.07149256    -0.86012740    -1.98619464
O       4.03752555     3.00175081     7.49544695    -2.07149256     0.86012740     1.98619464
O       0.47585796     0.53423922     2.23732957     0.51678550    -0.94440485     0.64816146
O       7.41115795     4.40069185     7.49547802    -0.51678550     0.94440485    -0.64816146
O       2.72152981     0.53428531     7.10376459    -2.07149256     0.86012740    -1.98619464
O       5.16548609     4.40064576     2.62904311     2.07149256    -0.86012740     1.98619464
