# total energy = -4988.88746765 eV

CRYSTAL
PRIMVEC
        4.06172758     0.00000000     0.00000000
        0.60584231     4.01629009     0.00000000
       -2.33382155    -2.00817654     5.19839207
PRIMCOORD
6 1
Ti      0.45423403     3.01237108     1.29959774     0.00004397    -0.00004397     0.00000000
Ti      1.87951474    -1.00425717     3.89879377    -0.00004397     0.00004397     0.00000000
O       0.15150330     1.00406651     0.84677545    -0.00057053    -0.00143236    -0.91149163
O       2.18224529     1.00404724     4.35161605     0.00057053     0.00143236     0.91149163
O      -0.15147845    -1.00404513     3.44597149    -0.00143236    -0.00057053    -0.91149163
O       2.48522698     3.01215889     1.75242002     0.00143236     0.00057053     0.91149163
