# total energy = -19074.48331596 eV

CRYSTAL
PRIMVEC
        5.17600016     0.00000000     0.00000000
        0.00000000     5.50899976     0.00000000
        0.00000000     0.00000000     9.26300011
PRIMCOORD
22 1
Ti      1.95781898     3.43087900     3.26521202     0.17454377     1.87590919    -0.19347070
Ti      3.46453198     2.21413402     5.92725400    -0.90521891     0.43944257    -0.20007098
Ti      4.48242802     2.30376802     1.25296197     0.24409548    -0.18294126    -0.86511149
Ti      0.66101700     3.14486399     8.15475398     0.87224167     0.91730207    -0.37867787
Ti      1.88984701     0.63936598     1.39229598     0.05548134    -1.21749056    -1.97866722
Ti      3.16097500     4.97899398     8.11030701    -0.88982314     0.35331007     0.86549175
Ti      0.54493498     0.17119498     5.94465800     1.09618587     1.20184976    -0.20330749
Ti      4.54100302     4.97397701     3.42663399     0.24576953    -0.51306768    -0.60278790
O       3.55630099     3.41132098     4.29235199     0.60478231    -0.50882279     1.93879197
O       0.86667999     1.90317698     0.20231399     0.66092648    -0.02575526    -1.26736407
O       4.19830698     3.63548999     9.02836101    -0.10580093    -0.15924545    -0.06374101
O       3.43275800     0.76802997     0.17310399     0.65668827     0.84190419    -0.92473359
O       1.66079401     4.71380299     9.18563598    -1.12487759    -0.57151196    -0.68493982
O       4.33755802     0.78996802     4.70303302    -0.83393942     0.47350790     0.88064507
O       1.18325001     5.01110900     4.20456101    -0.69572509    -1.29512196     1.51167038
O       0.42264699     3.52945001     2.15630501    -1.37542063     0.01082255     1.30967056
O       4.96665298     1.86142199     6.89162302     0.58364295    -0.30876312     0.23629835
O       2.78031802     2.20120702     2.07910498    -0.45205050    -0.81488959     0.56398223
O       2.14492902     3.49309897     7.01948801     0.77856246     0.39111893    -0.96108206
O       0.09328400     0.73138598     2.06532298    -0.09535865    -0.41021940     1.33657305
O       2.26447000     0.89965599     6.62592699     0.14536046    -1.17818249    -0.14148760
O       2.87383501     4.79759302     2.36213400     0.35993375     0.68084354    -0.17768103
