# total energy = -4983.06833985 eV

CRYSTAL
PRIMVEC
        2.87428882     0.00000000     0.00000000
        1.73214609     4.15715033     0.00000000
       -0.00001104    -0.00005983     4.60012812
PRIMCOORD
6 1
Ti      2.30321186     2.07854511     2.30006401     0.00000000     0.00000000     0.00000000
Ti      0.00000000     0.00000000     0.00000000     0.00000000     0.00000000     0.00000000
O       1.77471195     0.81015561     0.89649720    -6.23986863     2.78406044     3.48944106
O       2.83171177     3.34693461     3.70363078     6.23986863    -2.78406044    -3.48944106
O       0.52849518     1.26836535     3.19656222     6.24159050    -2.78796698     3.49521036
O       1.20363985     2.88872505     1.40356581    -6.24159050     2.78796698    -3.49521036
