# total energy = -39038.08613204 eV

CRYSTAL
PRIMVEC
        7.60600008     0.00000000     0.00000000
        0.00000000     7.60600008     0.00000000
       -3.79573973    -3.79573973     9.71340985
PRIMCOORD
46 1
Ti      1.90804145     4.73358147     6.11953865    -0.19564945     0.99312445     0.58652490
Ti      3.83561599     6.76650499     1.20742701     0.66985001    -1.14616453     1.11639320
Ti      1.93633343     0.81942245     6.17131563     0.04072192     0.16584007    -1.05640215
Ti      3.77451898     2.77082299     1.25770298     0.14611713    -0.35491753    -0.36750797
Ti     -1.93511257     4.71574946     5.99000463     0.21347389    -0.46772858     0.58206275
Ti      0.05243998     6.62857901     1.12492198    -0.73717129     0.47173950     1.14862199
Ti     -1.88888253     0.88607243     5.98021564     0.07941935     1.11610935     1.04623960
Ti     -0.09699703     2.89191901     1.18257097    -0.11751334     0.18230825     0.27034028
Ti      3.81937744     0.97204543     8.50745760     0.71095297     1.03229290    -0.68423843
Ti      5.66834302     2.89149202     3.67943800    -0.70829316    -0.53207508    -0.73383168
Ti      3.92670544    -2.76040656     8.53099964    -0.53093017    -0.73417621    -0.67046939
Ti      5.63732599    -0.96041602     3.66353501     0.07741877    -0.05193965    -1.81090088
Ti      0.01909245     1.01367744     8.39562462    -0.91700537    -0.78658842    -0.44193526
Ti      1.82511101     2.78305100     3.55240800     0.59280276     0.08232521     1.19044666
Ti      0.02020245    -2.82699055     8.49726062     0.53096102     0.38410701     0.35804322
Ti      1.83563201    -0.98091698     3.66917900     0.06746526    -0.02303375     0.35045306
O       1.85980144    -0.95575555     5.80029665    -0.23390234    -1.06993772    -1.04796327
O       3.91800000     0.89984602     0.92363502    -0.69375125     2.16732044    -1.23761074
O      -1.91354653     2.80063445     5.53579460     0.01140490     1.13158792     0.23778985
O      -0.18416099     4.81789999     0.78073499     0.65489467    -0.70346386    -0.46458874
O      -1.79637155    -0.95860755     5.59279863     0.08565916    -1.04756063     1.66488633
O       0.09449000     0.97515302     0.72048398    -0.13421035     0.91138416     1.18612849
O       3.75338645     2.94641146     8.90618965    -0.04734174    -1.18361215    -0.07054930
O       5.48938602     4.75515301     3.96150397     0.42133429    -1.14119819     1.15908922
O       4.01871645    -0.85542556     8.91030061     0.04157141    -0.61156231    -0.01076650
O       5.70779102     0.83984599     4.05145500     0.28717176     1.77595520    -0.17209660
O       0.16594745     2.80572546     9.00389561    -0.24088160    -0.53851750     0.10642160
O       2.08502298     4.64730600     4.22281398    -0.70610489    -0.68830360    -0.53168248
O      -0.24501558    -0.89631053     8.86719161     0.52884038     0.15365767     0.63755077
O       1.76166499     0.94657898     4.10925799     0.12363283     0.28899493    -0.18004311
O       1.97314046     0.66294643     8.05362165    -0.75101026     0.66018009     0.83692344
O       3.84177699     2.58724198     3.21046498    -0.62649425     0.49658691     0.09063425
O       1.88845744    -2.82566956     8.16027161     0.27676727     0.24490975    -0.30755033
O       3.75221898    -0.96901599     3.34783701    -0.51210300     0.19635831    -0.48999331
O      -1.88134953     1.19476242     8.00883960     0.13863008    -0.69540859     0.23945515
O      -0.09229100     2.89406699     3.13754600     0.22189194    -0.21872923     0.42487804
O      -1.85470556    -3.02322154     8.08507160    -0.44054044     0.37100698    -0.38641175
O      -0.08275702    -1.13803801     3.14574502     1.97730299     0.23934717     0.67696863
O       3.81351247     4.72953945     6.49092260     0.30086726    -0.10568446     0.04878002
O       5.69434002     6.67082900     1.69481302    -0.64795809    -0.12291652    -0.85002348
O       3.82294643     1.13685646     6.47590063    -0.16983737    -0.34276160    -0.36055544
O       5.62605700     3.01455197     1.49217798     0.31703025    -0.06560455    -0.10935934
O      -0.00425157     4.56846245     6.47962361     0.26778024     0.20693763    -0.11497155
O       1.95592098     6.55305700     1.65570603    -0.68229724    -0.08748593    -0.16760848
O       0.07202044     1.30545043     6.44193264     0.17162608    -0.72094814     0.24969663
O       1.89022601     3.07934698     1.76021700     0.13740777     0.16824483    -1.94126845
