# total energy = -19935.33609428 eV

CRYSTAL
PRIMVEC
        7.08431153     0.00000000     0.00000000
        0.00002673     4.52390969     0.00000000
        0.00000000     0.00000000    10.81972023
PRIMCOORD
24 1
Ti      2.56773783     2.68086468     4.01403905     0.41603498     0.23955234     1.05243030
Ti      4.51659997     1.84304496     6.80568129    -0.41603498    -0.23955234    -1.05243030
Ti      6.10977171     1.84304648     1.39577789     0.41569817    -0.23942970    -1.05262211
Ti      0.97456615     2.68086333     9.42394251    -0.41569817     0.23942970     1.05262211
Ti      2.56772470     0.41890989     1.39582129     0.41603498     0.23955234    -1.05243030
Ti      4.51661310     4.10499986     9.42389917    -0.41603498    -0.23955234     1.05243030
Ti      0.97455295     0.41890825     6.80563789    -0.41569817     0.23942970    -1.05262211
Ti      6.10978485     4.10500150     4.01408240     0.41569817    -0.23942970     1.05262211
O       2.24223861     1.59294546     5.52122044     1.25307670     0.65996335    -0.74156865
O       4.84209925     2.93096412     5.29849991    -1.25307670    -0.65996335     0.74156865
O       1.29997715     1.59296373     0.11139509    -1.25263987     0.66008033    -0.74237340
O       5.78436076     2.93094591    10.70832491     1.25263987    -0.66008033     0.74237340
O       4.84208611     0.66900921     0.11135997    -1.25307670    -0.65996335    -0.74156865
O       2.24225175     3.85490037    10.70836002     1.25307670     0.65996335     0.74156865
O       5.78434757     0.66899100     5.52125549     1.25263987    -0.66008033    -0.74237340
O       1.29999017     3.85491863     5.29846479    -1.25263987     0.66008033     0.74237340
O       0.25740559     2.75169833     2.92267636    -1.57316502     0.59999337     0.83740115
O       6.82693227     1.77221125     7.89704393     1.57316502    -0.59999337    -0.83740115
O       3.79956951     1.77216919     2.48721817    -1.57262097    -0.59993655    -0.83760376
O       3.28476829     2.75174044     8.33250194     1.57262097     0.59993655     0.83760376
O       0.25739239     0.48974342     2.48718364    -1.57316502     0.59999337    -0.83740115
O       6.82694540     4.03416615     8.33253648     1.57316502    -0.59999337     0.83740115
O       3.28475516     0.48978554     7.89707840     1.57262097     0.59993655    -0.83760376
O       3.79958264     4.03412404     2.92264183    -1.57262097    -0.59993655     0.83760376
