# total energy = -4989.61963802 eV

CRYSTAL
PRIMVEC
        3.29612872     0.00000000     0.00000000
        0.00000000     4.22553240     0.00000000
        0.00000000    -0.00006205     4.74246069
PRIMCOORD
6 1
Ti      1.64806436     2.11273512     2.37123045     0.00000000     0.00000000     0.00000000
Ti      0.00000000     0.00000000     0.00000000     0.00000000     0.00000000     0.00000000
O       1.64806436     0.82348192     0.92423580     0.00000000     0.06451877    -0.03807137
O       1.64806436     3.40198832     3.81822510     0.00000000    -0.06451877     0.03807137
O       0.00000000     1.28922809     3.29546710     0.00000000    -0.06462007    -0.03812227
O       0.00000000     2.93624215     1.44699380     0.00000000     0.06462007     0.03812227
