# total energy = -19073.58728877 eV

CRYSTAL
PRIMVEC
        5.93400000     0.00000000     0.00000000
        0.00000000     9.29699974     0.00000000
        0.00000000     0.00000000     4.64899994
PRIMCOORD
22 1
Ti      4.39693901     6.81505298     2.43530900     1.20477028     0.18923018    -0.02530866
Ti      4.36722698     2.42840699     2.14491298     1.55436819    -0.28835833     1.27182879
Ti      1.54998001     7.16816301     2.51169298    -0.80743596     0.37682488     0.68236538
Ti      1.63841902     2.31793600     2.09481900    -1.23526075     0.69633521     1.04001393
Ti      3.00288600     4.58420701     4.39631601    -0.41857575     0.24920658     0.64995892
Ti      2.99099099     0.05601600     0.07976500     0.81590030    -0.68898623    -0.94367543
Ti      5.83929802     4.53005201     4.53569399    -0.03275175    -0.25596164    -0.42003151
Ti      5.89370702     9.19555303     0.27077598    -0.82726123    -1.55251211    -0.12251645
O       4.34696298     5.32410602     0.87613602     0.77558384     0.93071398     1.54482502
O       4.42734802     0.79684801     1.14097500     0.40650313     0.35751280    -0.60985921
O       1.46560100     0.68777501     1.15678501     0.31091334     1.28798252     0.10671908
O       4.39564300     8.30383898     3.88821298     0.65953140     1.75673080     0.33108313
O       4.34720899     4.11045398     3.30276498     1.18078239    -1.62114105    -0.52996035
O       1.51426901     8.50477700     3.77133699    -0.69613235     0.66806387     0.30684765
O       1.48470700     3.99400398     3.46996102    -0.53381238    -0.80869169    -0.04556176
O       3.00695902     6.32086001     3.60664300    -1.56751322    -0.56437689    -1.10195106
O       2.98858699     1.67214598     3.32134301    -0.02207550    -0.98545947     0.52990250
O       0.05814901     6.17527001     3.40529799     0.42573550    -0.33461069    -0.27210740
O       3.07961199     7.86757002     1.55739098    -0.86923759    -0.55579892    -0.53524783
O       3.04553499     2.94518102     1.09247500    -1.33592487     1.93171654    -1.52703298
O       5.86903101     8.00501402     1.64131299     0.40262668    -1.43262384    -0.31568145
O       5.91838102     2.97451998     1.17889102     0.60926631     0.64420299    -0.01461030
