# total energy = -39034.56189828 eV

CRYSTAL
PRIMVEC
        5.93200024     0.00000000     0.00000000
        0.00000000     9.29399984     0.00000000
        0.00000000     0.00000000     9.29399984
PRIMCOORD
46 1
Ti      4.46498798     6.95052002     6.94310001    -0.73266594     0.78505527     1.02251165
Ti      4.32685599     6.87932102     2.41131002     1.01494001     0.22131344    -0.56786023
Ti      4.45154502     2.29487499     6.93413701     1.38797302     0.00905620    -0.07654408
Ti      4.50291300     2.48020398     2.20082400    -0.12133812     0.18854138    -0.06556701
Ti      1.47095998     6.99284701     6.99084502     1.00194642     0.12930700     0.01551970
Ti      1.38648900     7.00589700     2.30768298    -0.29144931     0.07619313    -0.50761411
Ti      1.55016602     2.32810399     6.95928802    -1.10391358    -0.65076059    -0.62637804
Ti      1.50670199     2.20418200     2.45214202     0.33852005     0.09322541     0.48482770
Ti      2.92782803     4.78245998     4.74749100    -1.92467300    -1.74480319    -1.10436404
Ti      2.90513997     4.69261002     9.17214000     0.63362238     1.01964513    -0.83475215
Ti      3.05944102     9.29343600     4.55692199    -0.29376433    -0.43941969     0.96689841
Ti      2.98955200     9.22216001     9.28878400    -0.27043644     0.74121101    -0.25864048
Ti      5.83399402     4.79845399     4.65229000     1.43009130    -1.99049816    -0.13320428
Ti      0.00153398     4.70794198     0.05502099    -0.67254273     0.58140892    -0.38635802
Ti      0.05911503     9.12405901     4.74300098     0.16820883     0.08115124     0.59401247
Ti      0.00468301     9.24973501     9.23819598     0.04077900     0.64348745     0.25248937
O       4.33632001     5.65361300     5.57687198     1.06737742    -0.18305824     0.10599634
O       4.43558101     5.53376901     0.92975400     0.09728030    -0.64133492     0.08912707
O       4.42160602     0.70386998     5.69504001     0.30081918     0.79526076    -1.32462461
O       4.38708001     1.09482301     0.68742199     0.46813044     0.00197924     1.16183233
O       1.38445501     5.61572799     5.61700002     0.41851456    -0.09968428    -0.34156115
O       1.49515899     5.77032802     0.75366398     0.35020701    -1.51574147     0.43728028
O       1.47875598     0.71877998     5.60056198     0.16089173     1.31386454    -1.23909812
O       1.45787200     0.88304601     0.75241300     0.53994446     0.99624808     2.02504351
O       4.52314000     8.42911799     8.23025800    -0.64279943    -0.24531316     1.06173076
O       4.55038401     8.28510902     3.75701099    -0.89452157     0.95740255     0.60315429
O       4.47210102     3.82028202     8.44669700    -0.19000485    -1.41420085     0.04715174
O       4.32044702     3.92969899     3.69467301     0.75970059    -1.36931272    -0.68734972
O       1.45302098     8.22818299     8.55662299     0.22855521     0.08292145    -0.67404477
O       1.47159298     8.24789801     3.78252898     0.21839653     1.09704590    -0.19230496
O       1.57203897     3.78747102     8.11525699    -0.01678957     0.63683086     2.46598478
O       1.46943299     3.68965498     4.03908602    -0.27237146    -0.54947452    -1.62704533
O       3.00762700     6.05972299     7.87168400     0.18249800     0.02396552     0.01611979
O       2.93194301     6.04218299     3.24471101    -1.11071543    -0.64045818     0.73345810
O       2.84442498     1.27221402     7.81980701     0.55547547     0.59981982     0.13123121
O       3.18042999     1.42225202     3.02293001    -0.08530306    -0.22536267     1.02256693
O       0.09431500     6.02982702     7.89819700    -1.48202838    -0.03879719     0.02343844
O       5.87499499     6.00722602     3.18422800     1.04770487    -0.54277731     0.69800180
O       0.03700600     1.40529300     7.79863097     0.07595941    -0.20197283     0.48559081
O       2.87917002     7.92784299     6.08001498     0.82294846    -0.69677101     0.05613183
O       3.00862699     7.85070397     1.60358498    -0.78712990     1.66475598    -1.97842168
O       3.07036499     3.14185202     5.98982101    -0.23757156     0.22404756     0.36188136
O       0.01839399     7.78588902     6.00572802    -0.14667866    -0.06734879     0.50302084
O       5.84189998     7.89386298     1.56445401     0.41233362     0.76072697    -1.27474236
O       5.85802602     3.30065901     6.07664402    -0.73364450    -0.75502889     0.06995434
O       0.37574098     3.34460797     1.65862502    -1.71247695     0.28765410    -1.53448044
