# total energy = -19072.36409298 eV

CRYSTAL
PRIMVEC
        5.17600016     0.00000000     0.00000000
        0.00000000     5.50899976     0.00000000
        0.00000000     0.00000000     9.26300011
PRIMCOORD
22 1
Ti      1.60254398     3.23949401     3.29947799     1.19517286     1.63623755    -0.29444336
Ti      3.98259597     2.35314799     5.74859201    -2.71992091    -1.59502223    -0.73942486
Ti      4.23824902     2.03579902     1.37146201     0.99474861    -0.12833023    -0.61368707
Ti      1.00034699     3.31740398     8.21296999    -0.41172787    -3.02823074     1.11266690
Ti      1.62024999     0.48888601     1.40774002     1.12385043     0.58175293    -1.01314795
Ti      3.17626002     5.13707901     8.03371098     1.44095705     1.98307409     1.22032829
Ti      1.34119000     0.10875100     6.01955002     0.89966147     1.33089194    -2.66433646
Ti      4.23471300     5.04784698     3.55270402    -1.48229500    -0.91271214     1.45578717
O       2.99407599     3.57018602     4.55312700     2.02729940    -0.64604416     1.22620146
O       0.96831197     1.85469800     0.24198799    -1.72213685     1.52943260    -1.11969450
O       4.49728700     3.87200899     7.98995199    -0.52986856    -0.72598210    -0.44316502
O       3.31134998     0.95282401     0.10993001     1.41508274     0.54991623     1.17084816
O       1.77417003     4.66893702     9.15011400    -1.39609874    -0.14540365     2.19217402
O       3.44685597     0.95484198     4.61100502     0.95281005    -0.49190930    -0.31909819
O       0.84914502     4.71657001     4.36843699    -1.39234184     1.24317975     1.90855064
O       4.91493400     3.39261499     2.66700799     0.84538777    -1.28972342    -1.13049777
O       0.53130899     1.85371600     6.00435200     0.19430142     0.48796779     0.37256224
O       2.59039402     1.87734202     2.34736302    -0.62838582     0.37436613     0.20243460
O       2.02026100     4.13131902     6.90326100     0.27282706    -1.20415990    -1.47539544
O       5.03402402     0.52577602     2.16947501     0.26669215    -0.20138250     0.26148489
O       2.93556402     1.07274701     6.93958003    -0.56703773     0.96583063    -0.94128559
O       2.61333201     4.68838698     2.41868701    -0.77897770    -0.31374926    -0.36886191
