# total energy = -19517.62527555 eV

CRYSTAL
PRIMVEC
        7.60600008     0.00000000     0.00000000
        0.00000000     7.60600008     0.00000000
       -1.89786986    -1.89786986     4.85670466
PRIMCOORD
23 1
Ti      3.75148099     6.69884899     1.22000302     0.05167456     0.96494540     1.48802599
Ti      3.78997101     2.90743200     1.12391797     0.54602538    -1.46217277     2.38426764
Ti      0.05123499     6.59626898     1.15617699    -0.72945181     0.92525475    -0.41636074
Ti     -0.05816002     2.78012201     1.12783198     1.00118049    -0.69195174    -0.42182974
Ti      5.67611325     2.76929224     3.70910881    -1.76753972     0.08928673    -0.71308210
Ti      5.80371021    -1.01761478     3.54293879    -0.65845488     0.00894487     2.06909835
Ti      2.05374823     2.99310622     3.80776883     1.16017551    -1.62436187    -3.22519814
Ti      1.93814824    -0.92468279     3.68878279     0.00509490     1.12222318     0.51189963
O       3.80977700     4.76095099     0.77581698     0.20928093     1.03479022     2.24023644
O       3.60075199     0.98917299     0.85813902     0.08341330    -0.30732459    -0.85498571
O       7.29550401     4.66424300     0.73619700     0.67083989     1.17884378     0.53909985
O       0.23101900     0.83767102     0.73148399    -0.26727836    -0.36242746    -0.11079942
O       5.30276722     4.68032724     4.00321283     1.93492040     0.82253940    -0.14931944
O       5.88765021     0.92040524     4.15030981     0.21015408    -0.10269684    -1.94144457
O       1.97660424     4.83427220     4.14817083    -0.03364238     0.19849001    -0.81216345
O       1.72122822     1.05336023     4.16402381     0.03783354    -0.56705521    -1.58168232
O       3.85969223     2.71826923     3.18543379    -1.04380168     0.08261523    -0.22562801
O       3.78284622    -0.70848679     3.25270179    -0.94445756    -0.38736229    -0.30401378
O       0.10879625    -0.76193978     3.14334684    -0.48235687    -1.19218781    -0.03624048
O       5.68288100     6.75604098     1.74903199     0.15533326    -0.33231778    -1.84606227
O       5.80662497     2.52858702     1.43381301    -2.37567603     0.62297621     1.59459800
O       1.87143402     6.42887900     1.39527599     0.80025050    -0.13133997     0.95962219
O       1.60689498     2.99338298     1.87781500     1.43648255     0.11028880     0.85196235
