# total energy = -19912.30623342 eV

CRYSTAL
PRIMVEC
        7.86067444     0.00000000     0.00000000
        0.00002966     5.01968062     0.00000000
        0.00000000     0.00000000    12.00544300
PRIMCOORD
24 1
Ti      2.84913376     2.97465806     4.45393375     0.53262042    -0.47483511     2.03441313
Ti      5.01156983     2.04502249     7.55150938    -0.53262042     0.47483511    -2.03441313
Ti      6.77933573     2.04502418     1.54873985     0.53221649     0.47498089    -2.03523254
Ti      1.08136791     2.97465657    10.45670334    -0.53221649    -0.47498089     2.03523254
Ti      2.84911918     0.46481782     1.54878801     0.53349305    -0.48076587    -2.03486230
Ti      5.01158440     4.55486286    10.45665524    -0.53349305     0.48076587     2.03486230
Ti      1.08135328     0.46481600     7.55146122    -0.53289244    -0.48077590    -2.03532433
Ti      6.77935031     4.55486468     4.45398184     0.53289244     0.48077590     2.03532433
O       2.48796339     1.76751483     6.12628569     0.80439769     1.39854180    -1.81763768
O       5.37274026     3.25216566     5.87915743    -0.80439769    -1.39854180     1.81763768
O       1.44244040     1.76753510     0.12360277    -0.80435732     1.39893621    -1.81871112
O       6.41826331     3.25214546    11.88183997     0.80435732    -1.39893621     1.81871112
O       5.37272568     0.74232529     0.12356381    -0.80391047    -1.39856211    -1.81757469
O       2.48797796     4.27735520    11.88187893     0.80391047     1.39856211     1.81757469
O       6.41824867     0.74230508     6.12632459     0.80422825    -1.39909690    -1.81872346
O       1.44245485     4.27737547     5.87911847    -0.80422825     1.39909690     1.81872346
O       0.28561442     3.05325431     3.24296966    -2.16689312     0.71616357     0.31730176
O       7.57508923     1.96642618     8.76247340     2.16689312    -0.71616357    -0.31730176
O       4.21596068     1.96637952     2.75979003    -2.16682190    -0.71603553    -0.31730844
O       3.64474290     3.05330104     9.24565284     2.16682190     0.71603553     0.31730844
O       0.28559978     0.54341393     2.75975171    -2.16717543     0.71579719    -0.31698243
O       7.57510381     4.47626656     9.24569116     2.16717543    -0.71579719     0.31698243
O       3.64472833     0.54346066     8.76251165     2.16671032     0.71589463    -0.31772496
O       4.21597526     4.47621983     3.24293134    -2.16671032    -0.71589463     0.31772496
