# total energy = -4986.32245084 eV

CRYSTAL
PRIMVEC
        3.07095069     0.00000000     0.00000000
        1.85066135     4.44158693     0.00000000
       -0.00001180    -0.00006393     4.91487373
PRIMCOORD
6 1
Ti      2.46080004     2.22076136     2.45743681     0.00000000     0.00000000     0.00000000
Ti      0.00000000     0.00000000     0.00000000     0.00000000     0.00000000     0.00000000
O       1.89613961     0.86558731     0.95783648    -2.19256971     1.23718907     1.16562393
O       3.02546047     3.57593540     3.95703709     2.19256971    -1.23718907    -1.16562393
O       0.56465537     1.35514824     3.41527437     2.19239128    -1.23717005     1.16550181
O       1.28599416     3.08637466     1.49959926    -2.19239128     1.23717005    -1.16550181
