# total energy = -4989.69921884 eV

CRYSTAL
PRIMVEC
        3.93677918     0.00000000     0.00000000
        0.77955205     3.85882481     0.00000000
       -2.35820148    -1.92944175     5.04977032
PRIMCOORD
6 1
Ti      0.58452833     2.89426618     1.26244272     0.00063352    -0.00063352     0.00000000
Ti      1.77360142    -0.96488311     3.78732777    -0.00063352     0.00063352     0.00000000
O       0.19492926     0.96470056     0.82256638    -0.00040752    -0.00065357    -0.75380376
O       2.16320037     0.96468241     4.22720416     0.00040752     0.00065357     0.75380376
O      -0.19490342    -0.96467942     3.34745144    -0.00065357    -0.00040752    -0.75380376
O       2.55303294     2.89406229     1.70231905     0.00065357     0.00040752     0.75380376
