# total energy = -19905.07199819 eV

CRYSTAL
PRIMVEC
        8.36919204     0.00000000     0.00000000
        0.00002741     3.81743612     0.00000000
        0.00000000     0.00000000    12.73725617
PRIMCOORD
24 1
Ti      3.03344569     2.26220913     4.72543119     0.12792297    -0.21189729     2.69488478
Ti      5.33577340     1.55522706     8.01182516    -0.12792297     0.21189729    -2.69488478
Ti      7.21789847     1.55522836     1.64314604     0.12739255     0.21200553    -2.69420729
Ti      1.15132062     2.26220795    11.09411043    -0.12739255    -0.21200553     2.69420729
Ti      3.03343217     0.35349113     1.64319713     0.12792297    -0.21189729    -2.69488478
Ti      5.33578692     3.46394512    11.09405934    -0.12792297     0.21189729     2.69488478
Ti      1.15130710     0.35348971     8.01177406    -0.12739255    -0.21200553    -2.69420729
Ti      7.21791199     3.46394654     4.72548229     0.12739255     0.21200553     2.69420729
O       2.64891168     1.34418414     6.49972437     1.84505439     0.84707288    -2.01640897
O       5.72030741     2.47325198     6.23753198    -1.84505439    -0.84707288     2.01640897
O       1.53575238     1.34419954     0.13113718    -1.84649344     0.84718009    -2.01720653
O       6.83346676     2.47323664    12.60611880     1.84649344    -0.84718009     2.01720653
O       5.72029395     0.56453392     0.13109586    -1.84505439    -0.84707288    -2.01640897
O       2.64892514     3.25290226    12.60616012     1.84505439     0.84707288     2.01640897
O       6.83345330     0.56451852     6.49976569     1.84649344    -0.84718009    -2.01720653
O       1.53576572     3.25291766     6.23749066    -1.84649344     0.84718009     2.01720653
O       0.30408865     2.32198103     3.44065069    -1.86377306     0.52865294     0.11183532
O       8.06513044     1.49545509     9.29660566     1.86377306    -0.52865294    -0.11183532
O       4.48869532     1.49541953     2.92801798    -1.86177171    -0.52837115    -0.11241330
O       3.88052377     2.32201666     9.80923819     1.86177171     0.52837115     0.11241330
O       0.30407519     0.41326297     2.92797734    -1.86377306     0.52865294    -0.11183532
O       8.06514390     3.40417321     9.80927883     1.86377306    -0.52865294     0.11183532
O       3.88051031     0.41329854     9.29664625     1.86177171     0.52837115    -0.11241330
O       4.48870877     3.40413765     3.44061004    -1.86177171    -0.52837115     0.11241330
