# total energy = -19517.80228119 eV

CRYSTAL
PRIMVEC
        5.17600016     0.00000000     0.00000000
        0.00000000     5.50899976     0.00000000
        0.00000000     0.00000000     9.26300011
PRIMCOORD
23 1
Ti      1.87786898     3.34194399     3.40355499    -0.63159353    -1.51805855     3.14894640
Ti      3.38849698     2.24388903     5.76629500    -1.23227929     0.05657637    -2.18924733
Ti      4.42323399     2.02557102     1.52543597    -0.42636414     0.61032998    -1.20709559
Ti      0.77852901     3.39016098     7.73809601     0.11628924    -0.09712911     1.43127530
Ti      1.98036902     0.39229301     1.38172900     0.14679693    -0.10329385    -1.47229135
Ti      3.17296298     5.16731202     7.92764698     0.20852631    -0.39973110     1.71470893
Ti      0.69491001     0.48055602     5.92799199     0.60151881     0.65400995    -3.86049920
Ti      4.48019198     4.93529299     3.35183902     0.19855763    -0.83334087     3.34374018
O       1.75934301     1.84663498     4.74538598    -0.20604957     0.52316107     0.06095368
O       3.54554002     3.59826999     4.50625502     0.20927605     0.00031445    -0.04141483
O       0.20012700     2.57847701     9.25586399    -0.09166500    -0.11090586     0.17250412
O       3.55913299     0.71240900     0.34558698    -0.04609373     0.49653266    -1.28460281
O       1.74468300     4.81246899     9.07926701    -1.17259960    -0.43308680     0.18472920
O       4.23921699     0.71985997     4.75206600     0.40404875     0.29664139    -0.09458244
O       0.93371902     4.58339303     4.53970399    -0.03176419     0.70056031     0.55492886
O       0.23072297     3.39838498     2.47524998    -0.57713317    -0.20120072    -0.37973022
O       5.10449000     2.13657802     6.57901500     0.13146698     0.46311010     1.08657302
O       2.61581602     1.91257099     2.37069799     0.80038008     0.34480435    -1.51817810
O       2.53778597     3.45915998     7.14994100     1.07984573    -0.61831172    -0.25068574
O       0.14887000     0.57539998     2.14848900     1.53380450     0.42307570    -0.42973280
O       5.00920698     4.92020900     7.20889500    -0.98350157    -0.43115642     0.78856843
O       2.47706902     0.75284100     6.75977300    -0.73097441     0.48291172     0.31227448
O       2.79467401     4.66450399     2.37987700     0.69950744    -0.30581304    -0.07114271
