# total energy = -4983.46234889 eV

CRYSTAL
PRIMVEC
        4.76914808     0.00000000     0.00000000
       -0.00000774     3.17943168     0.00000000
       -2.38460214    -1.58976436     5.28341461
PRIMCOORD
6 1
Ti     -0.00020497     2.38468926     1.32085338    -0.00475654    -0.00953623     9.74795070
Ti      2.38474322    -0.79502227     3.96256052     0.00475654     0.00953623    -9.74795070
O       0.00005019     0.79484928     0.86062494     0.00293697     0.00310667    -4.04624965
O       2.38448795     0.79481765     4.42278901    -0.00293697    -0.00310667     4.04624965
O      -0.00002044    -0.79485222     3.50233213    -0.00239833    -0.00032113    -1.95487756
O       2.38455852     2.38451910     1.78108187     0.00239833     0.00032113     1.95487756
