# total energy = -4987.49846697 eV

CRYSTAL
PRIMVEC
        3.68454038     0.00000000     0.00000000
        1.41712436     3.40111693     0.00000000
       -2.55086658    -1.70058127     4.80310419
PRIMCOORD
6 1
Ti      1.06274367     2.55096863     1.20077580     0.00088163    -0.00088163     0.00000000
Ti      1.48805460    -0.85043294     3.60232774    -0.00088163     0.00088163     0.00000000
O       0.35431940     0.85027478     0.78238631     0.00006608     0.00025300    -1.56716278
O       2.19647871     0.85026084     4.02071728    -0.00006608    -0.00025300     1.56716278
O      -0.35428757    -0.85025356     3.18393830     0.00025300     0.00006608    -1.56716278
O       2.90508562     2.55078915     1.61916534    -0.00025300    -0.00006608     1.56716278
