# total energy = -19515.33921909 eV

CRYSTAL
PRIMVEC
        5.17600016     0.00000000     0.00000000
        0.00000000     5.50899976     0.00000000
        0.00000000     0.00000000     9.26300011
PRIMCOORD
23 1
Ti      2.01150200     3.16180697     3.36812398    -0.04128756     0.35434828     3.00852554
Ti      3.24199500     2.27817500     5.91138403     2.99756004     0.35349108    -1.21764251
Ti      4.37855100     2.13777301     1.62152700     0.68980127    -0.29253714    -2.61487613
Ti      0.88524999     3.44541502     7.68362901    -3.04460302    -1.14796173     1.66615877
Ti      1.96782302     0.24476099     1.45732499     0.28296441    -0.42868790    -1.61793488
Ti      3.12093602     5.27512400     7.78890501     0.66038963    -0.76401362     2.04729847
Ti      0.65901898     0.58648699     5.88725100    -0.71682691    -0.31707242    -3.10607015
Ti      4.53890102     4.84193300     3.46063300     1.05218811    -0.07656517     3.14600659
O       1.91188899     1.91778101     4.81077001    -2.86231739    -1.38039495    -1.74406888
O       3.65818402     3.39343400     4.50887899     0.17393648     1.92485530    -1.58357131
O       5.05698200     2.79972803     9.15978699    -0.37951451    -0.79077110     1.04529960
O       3.35739401     0.68999199     0.22787097     0.04126134     0.81824411    -0.04614103
O       1.83205000     4.43456198     8.95419602     0.61234624     1.13313392     1.35065061
O       4.34335600     0.64605102     4.78474201    -1.44967206     0.28510279    -0.02035620
O       1.02136099     4.63196001     4.40839501     0.72618265     0.76100311     1.09325250
O       0.27959800     3.29307299     2.65595999    -0.36057113    -0.75114987    -1.97825867
O       5.14098799     2.37501899     6.32309700    -0.07452885    -0.86346829     1.51406305
O       2.73683102     1.62846102     2.54035502     0.01387882     0.07873878    -1.62937218
O       2.43025599     3.72874901     6.72079100     1.35210354     1.24234414     0.31488595
O       0.15461702     0.63021502     2.27744601     0.92451582     0.46217293    -1.89556811
O       5.01112202     4.88818901     7.13826899    -1.13986713     0.90377755     0.59154189
O       2.14202098     1.09688099     6.94150200     0.94604162    -0.76456100     2.77738971
O       2.97756503     4.53366000     2.37671500    -0.40398113    -0.74002881    -1.10121289
