# total energy = -39034.12462421 eV

CRYSTAL
PRIMVEC
        7.60600008     0.00000000     0.00000000
        0.00000000     7.60600008     0.00000000
       -3.79573973    -3.79573973     9.71340985
PRIMCOORD
46 1
Ti      1.74576443     4.51187546     6.15966764    -2.53208658     2.46879808    -1.02485110
Ti      3.95820799     6.74637900     1.12120499    -1.76656296    -0.00527539     2.49113815
Ti      1.89777043     0.58143943     6.07764062     0.30951054     0.33051286    -0.05235385
Ti      3.91429702     2.75361801     1.19510798     0.93363321     0.69022473    -0.37844441
Ti     -2.22287053     4.76006742     6.00438365     1.81853731    -1.50037192     1.01514364
Ti     -0.03877298     6.69613902     1.18715301     1.45417664     0.43982130     0.29018638
Ti     -1.82886155     0.88997046     6.18532263    -1.54940725     1.09828569    -0.93697745
Ti      0.05799899     2.94563002     1.20174899     0.22116149    -0.92988943     0.51429333
Ti      3.80622347     1.02391744     8.42393465    -0.33563347     1.09838750    -0.61541048
Ti      5.87336597     2.81175702     3.67080701    -0.45666306    -0.48796779     0.69570349
Ti      3.72424344    -2.66540358     8.54574162    -0.02537628    -0.51033486    -0.66569305
Ti      5.58417701    -0.91099202     3.76876000     2.84684218     0.10330414     0.12417636
Ti     -0.00012653     1.10119547     8.44308361     0.81639420    -2.05523933     0.72222520
Ti      2.14966600     2.85490602     3.51792802    -0.67542879     0.47485311     0.16589869
Ti     -0.11225358    -2.87402753     8.54343763    -0.29049131     1.40801863    -0.84904826
Ti      1.93097699    -0.90847600     3.54682401    -2.29437181    -0.88726052     0.08817807
O       1.53872044    -1.11020556     5.64542864     0.75324635     0.15867672    -0.70739096
O       3.74502899     1.00124199     0.83178202     0.05239345    -1.85997143    -0.94845820
O      -2.19814054     2.79411742     5.72524164     0.57356345     0.18670124    -0.66841456
O       0.28068001     4.76665600     0.76469801    -0.96550950     0.54272254     0.43553681
O      -1.79461056    -1.01789456     5.85884561    -0.94901201     0.31230225    -1.71951304
O       0.26113802     1.01633799     0.61437600    -0.43406665    -0.11472035     0.76791424
O       3.46739043     2.86947745     8.86328962     0.39326657     0.16413800     0.39957169
O       5.75618697     4.67814100     4.11267801     0.11988519     1.07285670    -0.47471684
O       3.76837746    -0.76023556     8.83989464     0.27475976    -2.13796332     0.54664399
O       5.83843599     0.90470799     4.18391098    -0.74196588     0.15854945    -0.03621580
O       0.02680944     2.87214747     8.99780965     0.60599124     0.33282994    -1.30709148
O       1.65359403     4.78379700     3.86351802     1.57349926    -1.44827415     0.94619151
O      -0.02417356    -0.75110657     9.09316363    -0.29723609     0.26676696    -0.78643184
O       2.19070100     1.00738600     4.03635499    -0.30686642    -0.17986699     1.13362526
O       1.86893943     0.68553743     7.98772061     0.74537774     1.31448855     0.23300065
O       4.01235399     2.90320700     3.15248298    -0.71979500     0.66268460     0.82740547
O       1.74986243    -2.67710056     8.10475261    -0.19410422    -0.74532580     0.18203829
O       3.87579298    -1.13403399     3.25646398    -0.95155689     0.19589628    -0.47540178
O      -1.79846757     1.26724346     8.16551565    -2.49881701    -0.53941739    -0.38850206
O       0.06258399     2.82774198     3.14384299     0.39573792     0.03913658    -0.01771002
O      -1.92363757    -2.78513353     7.99270663    -2.32684254     0.01128406     1.09421537
O      -0.00035201    -0.59673900     3.24378198    -0.28557870    -1.30771189    -1.11241031
O       3.52563147     4.97080147     6.51594263     1.59201738    -0.79543225    -0.70117223
O       5.68649200     6.84612701     1.60689498     0.78373116    -0.64551348     0.47287464
O       3.83409847     0.72722247     6.43033963    -0.80053563     0.19674989     0.88452641
O       5.82680298     2.43754700     1.56825298     0.71130958     1.53223176     0.18777750
O      -0.25676855     4.55839744     6.47443762     2.91071226    -0.73077849     0.21106785
O       1.80963400     6.74230899     1.59949100     1.64233261    -0.34302771     0.25960490
O      -0.07358453     0.81565042     6.54082364     2.12646997     0.72930037    -0.99298226
O       2.11550898     2.64463400     1.62368001    -2.25664163     1.23482032     0.17025157
