# total energy = -19955.05964739 eV

CRYSTAL
PRIMVEC
        5.56393394     0.00000000     0.00000000
        0.00003050     5.92170827     0.00000000
        0.00000000     0.00000000     9.95821832
PRIMCOORD
24 1
Ti      2.01667652     3.50919885     3.69442804     0.02060329    -0.51105888     0.43548384
Ti      3.54728792     2.41250949     6.26379056    -0.02060329     0.51105888    -0.43548384
Ti      4.79854608     2.41251152     1.28464147     0.02240846     0.51122652    -0.43557769
Ti      0.76541836     3.50919704     8.67357725    -0.02240846    -0.51122652     0.43557769
Ti      2.01666138     0.54834482     1.28468140     0.02060329    -0.51105888    -0.43548384
Ti      3.54730305     5.37336368     8.67353732    -0.02060329     0.51105888     0.43548384
Ti      0.76540322     0.54834262     6.26375063    -0.02240846    -0.51122652    -0.43557769
Ti      4.79856122     5.37336588     3.69446798     0.02240846     0.51122652     0.43557769
O       1.76103096     2.08513421     5.08160269     0.88972209     0.80312628     0.04772483
O       3.80293348     3.83657418     4.87661592    -0.88972209    -0.80312628    -0.04772483
O       1.02099002     2.08515806     0.10252544    -0.88946678     0.80357699     0.04676298
O       4.54297448     3.83655033     9.85569288     0.88946678    -0.80357699    -0.04676298
O       3.80291834     0.87571999     0.10249313    -0.88972209    -0.80312628     0.04772483
O       1.76104609     5.04598834     9.85572519     0.88972209     0.80312628    -0.04772483
O       4.54295934     0.87569614     5.08163500     0.88946678    -0.80357699     0.04676298
O       1.02100504     5.04601225     4.87658360    -0.88946678     0.80357699    -0.04676298
O       0.20216912     3.60191867     2.68996327     0.31051687    -0.18255559     0.21432107
O       5.36179532     2.31978966     7.26825534    -0.31051687     0.18255559    -0.21432107
O       2.98414055     2.31973447     2.28917769     0.31074159     0.18284201    -0.21463089
O       2.57982389     3.60197386     7.66904074    -0.31074159    -0.18284201     0.21463089
O       0.20215398     0.64106447     2.28914589     0.31051687    -0.18255559    -0.21432107
O       5.36181046     5.28064386     7.66907254    -0.31051687     0.18255559     0.21432107
O       2.57980876     0.64111966     7.26828708    -0.31074159    -0.18284201    -0.21463089
O       2.98415568     5.28058867     2.68993147     0.31074159     0.18284201     0.21463089
