# total energy = -4988.61584908 eV

CRYSTAL
PRIMVEC
        3.91885766     0.00000000     0.00000000
        1.33083542     3.68596289     0.00000000
       -2.62488229    -1.84300655     5.08210714
PRIMCOORD
6 1
Ti      0.99801358     2.76461355     1.27052684     0.00062504    -0.00062504     0.00000000
Ti      1.62679653    -0.92165769     3.81158041    -0.00062504     0.00062504     0.00000000
O       0.33274968     0.92148565     0.82783378    -0.00039286    -0.00054842    -1.39015177
O       2.29206025     0.92147009     4.25427358     0.00039286     0.00054842     1.39015177
O      -0.33271790    -0.92146338     3.36888735    -0.00054842    -0.00039286    -1.39015177
O       2.95752776     2.76441907     1.71322001     0.00054842     0.00039286     1.39015177
