# total energy = -19931.38754043 eV

CRYSTAL
PRIMVEC
        6.66119337     0.00000000     0.00000000
        0.00002344     3.81743612     0.00000000
        0.00000000     0.00000000    10.07782881
PRIMCOORD
24 1
Ti      2.41437619     2.26220923     3.73880275    -0.24755413     1.41550800    -0.70920667
Ti      4.24684078     1.55522721     6.33902648     0.24755413    -1.41550800     0.70920667
Ti      5.74485872     1.55522856     1.30007163    -0.24581889    -1.41615798     0.71128747
Ti      0.91635825     2.26220799     8.77775770     0.24581889     1.41615798    -0.71128747
Ti      2.41436457     0.35349122     1.30011203    -0.24755413     1.41550800     0.70920667
Ti      4.24685239     3.46394532     8.77771731     0.24755413    -1.41550800    -0.70920667
Ti      0.91634664     0.35348971     6.33898609     0.24581889     1.41615798     0.71128747
Ti      5.74487033     3.46394678     3.73884314    -0.24581889    -1.41615798    -0.71128747
O       2.10831808     1.34418422     5.14263907     2.91823891    -1.03691318     1.89518604
O       4.55289889     2.47325217     4.93519016    -2.91823891     1.03691318    -1.89518604
O       1.22233417     1.34419960     0.10375688    -2.91796123    -1.03700471     1.89439902
O       5.43888285     2.47323684     9.97407204     2.91796123     1.03700471    -1.89439902
O       4.55288727     0.56453411     0.10372419    -2.91823891     1.03691318     1.89518604
O       2.10832969     3.25290233     9.97410473     2.91823891    -1.03691318    -1.89518604
O       5.43887123     0.56451873     5.14267176     2.91796123     1.03700471     1.89439902
O       1.22234563     3.25291771     4.93515742    -2.91796123    -1.03700471    -1.89439902
O       0.24203081     2.32198108     2.72227307     0.61190375    -0.00109041     1.41219153
O       6.41918616     1.49545536     7.35555616    -0.61190375     0.00109041    -1.41219153
O       3.57263571     1.49541967     2.31667355     0.61147875     0.00127475    -1.41253580
O       3.08858125     2.32201677     7.76115547    -0.61147875    -0.00127475     1.41253580
O       0.24201919     0.41326296     2.31664138     0.61190375    -0.00109041    -1.41219153
O       6.41919777     3.40417348     7.76118764    -0.61190375     0.00109041     1.41219153
O       3.08856964     0.41329866     7.35558827    -0.61147875    -0.00127475    -1.41253580
O       3.57264733     3.40413778     2.72224091     0.61147875     0.00127475     1.41253580
