# total energy = -4985.72633664 eV

CRYSTAL
PRIMVEC
        3.93102693     0.00000000     0.00000000
        0.00000000     3.69559765     0.00000000
        0.00000000    -0.00007278     5.25596103
PRIMCOORD
6 1
Ti      1.96551330     1.84776254     2.62798063     0.00000000     0.00000000     0.00000000
Ti      0.00000000     0.00000000     0.00000000     0.00000000     0.00000000     0.00000000
O       1.96551330     0.72020341     1.02430945     0.00000000     0.19696354     1.08033321
O       1.96551330     2.97532168     4.23165186     0.00000000    -0.19696354    -1.08033321
O       0.00000000     1.12753007     3.65229110    -0.00000000    -0.19713581     1.08220446
O       0.00000000     2.56799502     1.60367015    -0.00000000     0.19713581    -1.08220446
