# total energy = -19960.35137480 eV

CRYSTAL
PRIMVEC
        7.60600008     0.00000000     0.00000000
        0.00000000     7.60600008     0.00000000
       -1.89786986    -1.89786986     4.85670466
PRIMCOORD
24 1
Ti      3.72161898     6.59948500     1.29315500    -1.61295620     1.47716565     0.44063711
Ti      3.74602099     2.99426501     1.23598898     0.08030689    -0.94744698     0.77887563
Ti     -0.04767300     6.63421798     1.18950801     1.79597742    -1.54483300    -0.71784276
Ti      0.07600102     2.74294799     1.16214098    -0.48176655     1.54882463    -0.46431364
Ti      5.77971123     2.87054824     3.58094282    -0.56525570    -0.95335384    -0.27212592
Ti      5.81080521    -1.01573679     3.58040883    -1.56540003     0.65583441     0.28196399
Ti      1.83763722     2.93470320     3.72303882     0.82614229     0.10964782    -1.71041621
Ti      1.80642020    -0.95420575     3.77560379     1.76111633    -0.26157719    -0.78812363
O       3.62960400     4.84713502     0.80080399     0.62211206    -1.26055655     0.01129743
O       3.67233401     1.06852502     0.80196399     0.39722093    -0.72411934     0.60747400
O       0.18354201     4.63515000     0.61436801    -0.81959060     0.53401138     1.15944146
O       0.21954802     0.84460102     0.73022201    -0.83793363     0.37710770    -0.06703640
O       5.99115120     4.63759623     4.09662483    -0.70382047     2.20743326    -0.10975015
O       5.77975224     0.91568625     3.83532081    -0.47497318    -1.57859725     0.55985766
O       1.61179125     4.77857323     4.08741980     0.51810936     0.87032491     0.70023404
O       1.90892120     1.10330821     4.09740283     0.19277856    -1.33175403    -0.11318515
O       3.78372021     3.09720523     3.20222580     0.42553059    -0.36070277    -0.15829774
O       3.71501522    -1.25074477     3.23016382     0.83592200     0.96789574     0.72619499
O       0.06384820     2.88374624     3.10178579    -0.18719618    -0.65456634     0.45993736
O       0.02132420    -0.91786577     3.19397582    -1.18925135     0.19425411    -0.49326581
O       5.57992401     6.53041398     1.58279202     2.45537872     0.24692164     0.29611072
O       5.85791400     3.00380100     1.61989300    -1.76696611    -0.48099007    -0.86507163
O       1.86850000     6.42411000     1.70774902    -1.09211273     1.15703696    -0.13058612
O       1.87305198     2.93226502     1.62498602     1.38662756    -0.24796037    -0.13200897
