# total energy = -4985.87654736 eV

CRYSTAL
PRIMVEC
        3.95327794     0.00000000     0.00000000
        0.00000000     3.33533516     0.00000000
        0.00000000    -0.00007534     5.23600465
PRIMCOORD
6 1
Ti      1.97663886     1.66762986     2.61800249     0.00000000     0.00000000     0.00000000
Ti      0.00000000     0.00000000     0.00000000     0.00000000     0.00000000     0.00000000
O       1.97663886     0.64999301     1.02042024     0.00000000    -0.39561656     0.91379791
O       1.97663886     2.68526676     4.21558468     0.00000000     0.39561656    -0.91379791
O       0.00000000     1.01760683     3.63842373     0.00000000     0.39571324     0.91433630
O       0.00000000     2.31765288     1.59758125     0.00000000    -0.39571324    -0.91433630
