# total energy = -19071.10269524 eV

CRYSTAL
PRIMVEC
        5.17600016     0.00000000     0.00000000
        0.00000000     5.50899976     0.00000000
        0.00000000     0.00000000     9.26300011
PRIMCOORD
22 1
Ti      1.74551201     3.33193598     3.48464198    -3.55528472     1.04745907    -0.46637206
Ti      3.81698101     2.14613898     5.54237899     1.78776582     0.40552740     2.60914514
Ti      4.11971199     2.16613199     1.64764401     1.67537155    -1.54679192     0.52654592
Ti      1.05378400     3.04775002     8.14876698    -0.77582681     2.02149487     0.43203162
Ti      1.64215300     0.42896500     1.32858802    -1.25362794     0.19214632    -0.92919394
Ti      3.52438600     5.14018603     8.14975500    -2.58472300    -0.05197384    -1.65209303
Ti      1.65622499     0.42920302     5.70829601    -3.98155835    -1.49557733     3.13255869
Ti      4.13853498     4.97485301     3.69624102     2.05105151     0.03868483    -1.29530168
O       3.16779398     3.55619701     4.60908400     0.54608914     0.40089812     1.54755734
O       0.59001401     2.23648203     0.52542200    -0.06863871    -0.87926439    -1.02146958
O       4.53295598     3.54412399     7.62789701     0.77120371     0.04999872    -0.03784640
O       3.22461598     0.83223500     0.36349201     0.63797681     0.75074312    -0.23636572
O       1.41946802     4.67192099     9.08003998     0.27258049     0.34501569     1.49422904
O       2.91072100     0.79236202     4.64725900     3.80331425    -0.36451212    -3.55384310
O       0.84604203     4.83611601     4.37941298    -1.25111520     0.20322958     1.73548756
O       4.97698602     3.31813001     2.93485899    -0.52210717    -0.43225222    -1.86956242
O       0.32477598     1.82420601     4.96190801     1.11775049    -0.38942149     1.19445372
O       2.33030103     1.91308699     2.55406198     0.81030969    -0.61264989    -1.66849230
O       2.19631297     4.40215998     6.87325999    -0.35540886    -0.89478280    -0.09102943
O       4.86916901     0.48663801     2.27041398     0.71533593     1.11120060    -0.41008725
O       3.04897199     1.16502298     7.03395302     0.06243052     0.97426283     0.59310075
O       2.54354797     4.74250398     2.43338798     0.09711086    -0.87343466    -0.03345264
