# total energy = -19518.34268142 eV

CRYSTAL
PRIMVEC
        5.93400000     0.00000000     0.00000000
        0.00000000     9.29699974     0.00000000
        0.00000000     0.00000000     4.64899994
PRIMCOORD
23 1
Ti      4.50325601     6.97745001     2.30831397     0.50331137     0.19880548    -0.25070759
Ti      4.49679301     2.30394398     2.34876598    -0.07125327    -0.25230502     0.20995045
Ti      1.46693702     7.04989999     2.30737500    -0.51010423     0.36149724    -0.33287854
Ti      1.49043000     2.29448901     2.27791200    -0.20611102    -0.26986720     0.22246581
Ti      3.00498302     4.54536698     0.05350897    -0.47546091    -0.05896210     0.55149309
Ti      2.94860601     9.25469398     4.52518501    -0.12734576    -0.28388100     0.28683186
Ti      0.02906300     4.65705201     0.02717902     0.40613623     0.46664537    -0.20770048
Ti      5.86447500     0.06948399     0.05372001     0.71027111    -0.42567020    -0.56186878
O       4.43117598     5.59630797     0.90281698    -0.39860058    -0.17000372    -0.18156417
O       4.47552199     0.93538900     0.82578602    -0.83306447     0.40814992     1.05319855
O       1.43850602     5.60169299     0.93706099     0.53386612    -0.10823448    -0.08378920
O       1.41516602     0.91015201     0.89286802     0.71507933     0.39822546     0.66116354
O       4.46617698     8.34955498     3.69736499    -0.36899946     0.10042578     0.77042878
O       4.41288502     3.69007700     3.76422400    -0.04767264     0.56347855    -0.21782883
O       1.46911501     8.52491701     3.66940702    -0.06406497    -1.51369178     0.03232392
O       1.48209101     3.74104598     3.78679103     0.14572478     0.02435607    -0.62270728
O       3.00633502     1.31723600     3.24652899    -0.35843480     1.09464475    -0.89991267
O       5.89881099     6.08822501     3.25642302     0.21134193    -0.63986014     0.46431723
O       0.01224199     1.40449902     3.27234702    -0.15645014     0.48904226    -0.65035359
O       2.95894698     7.88725102     1.50277401    -0.14933693    -0.47516781    -0.11435577
O       2.95784402     3.26469501     1.36725701    -0.00399370    -0.82956751     1.10324895
O       5.92509099     7.84516899     1.48971302    -0.03022924     0.86305589    -1.10350606
O       5.87111602     3.26163801     1.45921902     0.57539125     0.05888445    -0.12824924
