# total energy = -19918.11551723 eV

CRYSTAL
PRIMVEC
        7.82573785     0.00000000     0.00000000
        0.00002620     4.01023593     0.00000000
        0.00000000     0.00000000    11.82344633
PRIMCOORD
24 1
Ti      2.83646923     2.37646217     4.38641426     0.15914800    -0.08339993     2.41065179
Ti      4.98929499     1.63377393     7.43703219    -0.15914800     0.08339993    -2.41065179
Ti      6.74920419     1.63377536     1.52526173     0.15931487     0.08358968    -2.41078369
Ti      1.07656009     2.37646093    10.29818490    -0.15931487    -0.08358968     2.41078369
Ti      2.83645619     0.37134427     1.52530914     0.15914800    -0.08339993    -2.41065179
Ti      4.98930809     3.63889196    10.29813748    -0.15914800     0.08339993     2.41065179
Ti      1.07654699     0.37134273     7.43698477    -0.15931487    -0.08358968    -2.41078369
Ti      6.74921723     3.63889350     4.38646167     0.15931487     0.08358968     2.41078369
O       2.47690476     1.41207230     6.03341417     1.85056324     0.81672356    -1.48444727
O       5.34885952     2.59816381     5.79003228    -1.85056324    -0.81672356     1.48444727
O       1.43602858     1.41208844     0.12172900    -1.85215116     0.81720230    -1.48668105
O       6.38973576     2.59814767    11.70171710     1.85215116    -0.81720230     1.48668105
O       5.34884642     0.59304584     0.12169065    -1.85056324    -0.81672356    -1.48444727
O       2.47691780     3.41719027    11.70175550     1.85056324     0.81672356     1.48444727
O       6.38972272     0.59302970     6.03345252     1.85215116    -0.81720230    -1.48668105
O       1.43604144     3.41720646     5.78999393    -1.85215116     0.81720230     1.48668105
O       0.28434320     2.43925286     3.19380781    -1.77977895     0.56219325     0.33872497
O       7.54142102     1.57098331     8.62963863     1.77977895    -0.56219325    -0.33872497
O       4.19722192     1.57094587     2.71795299    -1.77637660    -0.56227990    -0.33912041
O       3.62854230     2.43929029     9.10549328     1.77637660     0.56227990     0.33912041
O       0.28433016     0.43413483     2.71791523    -1.77977895     0.56219325    -0.33872497
O       7.54143412     3.57610127     9.10553104     1.77977895    -0.56219325     0.33872497
O       3.62852926     0.43417227     8.62967633     1.77637660     0.56227990    -0.33912041
O       4.19723502     3.57606384     3.19377006    -1.77637660    -0.56227990     0.33912041
