# total energy = -4969.71917384 eV

CRYSTAL
PRIMVEC
        5.14185616     0.00000000     0.00000000
       -0.00000728     2.76869212     0.00000000
       -2.57095663    -1.38440836     5.54704333
PRIMCOORD
6 1
Ti     -0.00022008     2.07661449     1.38676061    -0.01223434    -0.01506976    22.04776800
Ti      2.57111194    -0.69233057     4.16028228     0.01223434     0.01506976   -22.04776800
O       0.00005458     0.69216219     0.90356797     0.01012295     0.01283521   -14.90772986
O       2.57083717     0.69212163     4.64347503    -0.01012295    -0.01283521    14.90772986
O      -0.00002100    -0.69218096     3.67708963    -0.00196612    -0.00005065    -1.95058125
O       2.57091264     2.07646477     1.86995337     0.00196612     0.00005065     1.95058125
