# total energy = -19075.29591193 eV

CRYSTAL
PRIMVEC
        7.60600008     0.00000000     0.00000000
        0.00000000     7.60600008     0.00000000
       -1.89786986    -1.89786986     4.85670466
PRIMCOORD
22 1
Ti      3.91950498     6.63123998     1.18551399     0.02736040     0.54601073    -1.39484712
Ti      3.76474301     2.87235998     1.24348700     0.11843200    -0.37895555     0.73742223
Ti     -0.06793398     6.61550701     1.07604400    -0.07833152    -0.60322705     1.26529690
Ti     -0.11819999     2.76344202     1.10599400     0.02727402     0.28607364    -0.06445912
Ti      5.76893422     2.78648621     3.60526682    -1.50652483    -0.42378455     0.33034034
Ti     -1.32687576    -0.99067479     3.77735680    -2.25369334     0.58786881    -1.04724464
Ti      1.86186523     2.89391724     3.64172481     1.19529936     0.40093206    -0.56580540
Ti      1.56134324    -0.79511575     3.68148179     0.72795234    -0.66437485     0.46693745
O       3.78182703     4.77248901     0.91678302    -0.41463630     0.87857199    -0.74169335
O       3.79552203     0.98150002     0.75153102    -0.24802799    -0.10277783     1.33488537
O      -0.13491602     4.60587401     0.75770297     0.57560259     1.29291596    -0.97580497
O       7.13092502     0.91323701     0.54520301     1.06199275     0.42393496     2.22095444
O       5.69285922     4.81769721     4.13986682     0.97394529    -1.57690366    -2.47265834
O       5.47466722     0.79633821     3.87850083     1.82724641     0.97589805     0.43417952
O       2.17749924     4.87490624     4.07196782    -0.85851069    -0.78753716     0.70318618
O       2.09544724     1.02942322     4.06038381    -1.02551804    -0.46263856    -0.13898335
O       3.84975121     2.85059820     3.22854379    -0.79602026     0.33197196    -0.38461198
O       0.01782523     2.98148924     3.21600981    -0.53788038    -0.54128966     0.51714211
O       5.76133000     6.45588202     1.89247601    -0.38799529     0.50939923     0.16300260
O       5.67331401     2.98058901     1.63827900     0.16501320    -0.68055172     0.28461660
O       1.73188501     6.61384100     1.80606603     0.78713915     0.36337594    -0.39590221
O       1.80739601     2.85489999     1.66561201     0.61988086    -0.37491275    -0.27595352
