# total energy = -19518.67717288 eV

CRYSTAL
PRIMVEC
        7.60600008     0.00000000     0.00000000
        0.00000000     7.60600008     0.00000000
       -1.89786986    -1.89786986     4.85670466
PRIMCOORD
23 1
Ti      3.89188002     6.63903402     1.22110799     0.13103658     0.52636029     0.08691000
Ti      3.78559202     2.93604303     1.25167501     0.16037930    -1.03978047     0.26767096
Ti      0.09244398     6.60437402     1.27664303    -0.42804436    -0.43853266    -0.92305954
Ti      0.04308799     2.82763699     1.00919198    -0.94240710     0.22224958     0.44447320
Ti      5.52874220     2.86817620     3.67931481    -0.20990674    -0.85247914    -1.12191079
Ti      5.63058220    -1.01768178     3.63904183    -0.16399222     0.33789065    -0.16459412
Ti      1.91657120     2.89414325     3.64600284    -0.25650723    -0.89598890     0.07084446
Ti      1.84723025    -0.95107577     3.63342980     0.98244588     0.42455331     1.00616354
O       3.91947698     4.69619499     0.84870400    -0.15033683     1.57726413     0.37286718
O       4.10571398     0.94216099     0.71044300    -0.71437665     0.33985420     0.04634929
O       0.13202898     4.70315499     0.71238201    -0.09034037     0.26675051     0.92126029
O      -0.17939098     0.92965600     0.66998502     0.50030524    -0.97279370     1.61762738
O       5.71164623     4.61507021     4.14182583     0.04427364     2.47071047    -0.64872299
O       5.69111024     0.91399521     3.94139079     0.59953829     0.29642696     0.05682192
O       1.83305724     4.70447820     4.09105879    -0.29984730     0.87642923    -0.40350882
O       1.65058920     1.09437925     4.16751982    -0.24762098    -1.60691050    -1.19380529
O       3.69721825     2.80734521     3.27993982     1.27545225    -0.06511758    -0.55141956
O       3.77126825    -0.65264478     3.13637382    -0.17718327    -0.87160532     0.65925295
O       0.03215022    -1.02037778     3.21248083    -0.09659818     0.21700941     0.60335586
O       5.72995100     6.51317900     1.76485899     0.22511739    -0.27572906    -1.67408240
O       5.88304500     3.11659100     1.79045498     0.04981206    -0.94067521    -0.22291010
O       1.96750298     6.44117401     1.59692099    -0.67686553     0.88242402     0.19953491
O       1.80126401     2.89712500     1.60063000     0.48566665    -0.47831047     0.55088143
