# total energy = -19944.70467863 eV

CRYSTAL
PRIMVEC
        5.01796433     0.00000000     0.00000000
        1.81370167     5.02322958     0.00000000
        0.00000000     0.00000000     9.12608991
PRIMCOORD
24 1
Ti      2.89356872     2.97676112     3.38571428     2.93478705    -2.94381265     1.16052981
Ti      3.93809746     2.04646833     5.74037573    -2.93478705     2.94381265    -1.16052981
Ti      5.06657464     2.04647004     1.17729429    -5.85609457     0.63627216     1.89310473
Ti      1.76509157     2.97675956     7.94879582     5.85609457    -0.63627216    -1.89310473
Ti      1.98671802     0.46514646     1.17733088     2.93518891    -2.94397360    -1.16036063
Ti      4.84494818     4.55808309     7.94875924    -2.93518891     2.94397360     1.16036063
Ti      0.85824076     0.46514461     5.74033914     5.85682374    -0.63616161     1.89261494
Ti      5.97342545     4.55808498     3.38575087    -5.85682374     0.63616161    -1.89261494
O       2.22685263     1.76876447     4.65697383    -0.64569166     0.40316147    -1.06528865
O       4.60481355     3.25446498     4.46911618     0.64569166    -0.40316147     1.06528865
O       1.55943665     1.76878473     0.09395824     1.26910033    -0.70690682    -0.44352112
O       5.27222959     3.25444475     9.03213152    -1.26910033     0.70690682     0.44352112
O       3.69796283     0.74285022     0.09392862     0.64597628    -0.40312007    -1.06534830
O       3.13370335     4.28037923     9.03216114    -0.64597628     0.40312007     1.06534830
O       4.36537885     0.74282995     4.65700344    -1.26868690     0.70682146    -0.44291331
O       2.46628728     4.28039951     4.46908657     1.26868690    -0.70682146     0.44291331
O       1.28551038     3.05541290     2.46518456    -0.08565248    -1.41159838    -1.50125715
O       5.54615580     1.96781654     6.66090545     0.08565248     1.41159838     1.50125715
O       3.40179506     1.96776975     2.09788945     1.85235427    -1.72421841    -2.41862479
O       3.42987112     3.05545969     7.02820041    -1.85235427     1.72421841     2.41862479
O       0.37865966     0.54379814     2.09786029    -0.08570853    -1.41196579     1.50195623
O       6.45300653     4.47943130     7.02822957     0.08570853     1.41196579    -1.50195623
O       2.52302039     0.54384494     6.66093451    -1.85199535     1.72418371    -2.41891789
O       4.30864579     4.47938451     2.46515546     1.85199535    -1.72418371     2.41891789
