# total energy = -19074.04803213 eV

CRYSTAL
PRIMVEC
        5.17600016     0.00000000     0.00000000
        0.00000000     5.50899976     0.00000000
        0.00000000     0.00000000     9.26300011
PRIMCOORD
22 1
Ti      1.83093201     3.44683502     3.15847400     1.81879031     0.39403276     0.28059359
Ti      3.39558097     2.20412400     5.82106897     0.35935397     0.50015354    -0.99767890
Ti      4.53150598     2.25976498     1.22485499    -1.14323707     1.23219111    -0.98357691
Ti      0.84175199     3.06117101     7.90426200    -0.67679045     1.15226422     1.60302454
Ti      1.85071298     0.57156599     1.25079102     0.39862835    -0.24304262    -1.54206880
Ti      3.32591997     5.00309901     8.13540102    -0.51240382    -1.31373650     1.82445471
Ti      0.80656598     0.16739702     6.29229999     0.58039924    -1.19566163    -0.83512521
Ti      4.49889601     5.15500299     3.48539902    -2.04799987    -0.31792397     0.25471697
O       3.40328198     3.42542101     4.39058698    -1.05691148     0.55511475     1.10048758
O       1.11139198     2.03940298     0.28554097    -1.45063520     0.51547629    -1.69382694
O       4.35715298     3.67614398     9.10771902    -0.04343160    -0.93681804    -0.70406215
O       3.43452101     0.76930402     0.27738699     2.12029443     0.78592688    -1.49835206
O       1.65861602     4.70943199     9.03840998    -0.40884823    -0.27240977    -0.04867974
O       3.41196001     0.92242500     4.50326702     1.27995888    -1.34013917     0.39051858
O       0.82287401     4.82172102     4.55564001    -0.02510195     0.61427842     0.74697825
O       5.15630498     3.44063301     2.65636899     0.90731205    -0.26227859    -1.06371668
O       0.07431601     1.87935602     6.34934001    -0.63661772     0.42724448     0.56261697
O       2.76838502     2.11159799     2.18868002    -0.50495688     0.12983562     0.43084300
O       2.23112501     3.58193302     6.79696602     0.40859627     0.10285162     0.18522568
O       0.10985900     0.76412798     2.07576201     0.05853633    -1.61955982     2.18879070
O       2.36691998     0.79269397     7.06562200     0.66353281     1.31800171    -1.25731002
O       2.74022601     4.77726399     2.30092301    -0.08846809    -0.22580131     1.05614658
