# total energy = -4986.35094376 eV

CRYSTAL
PRIMVEC
        3.77971940     0.00000000     0.00000000
        0.00000000     3.18890581     0.00000000
        0.00000000    -0.00007203     5.00613128
PRIMCOORD
6 1
Ti      1.88985959     1.59441684     2.50306579     0.00000000     0.00000000     0.00000000
Ti      0.00000000     0.00000000     0.00000000     0.00000000     0.00000000     0.00000000
O       1.88985959     0.62145673     0.97562130     0.00000000    -1.18561118    -0.18548408
O       1.88985959     2.56737700     4.03051023     0.00000000     1.18561118     0.18548408
O       0.00000000     0.97293141     3.47868805    -0.00000000     1.18536102    -0.18517400
O       0.00000000     2.21590227     1.52744354    -0.00000000    -1.18536102     0.18517400
