# total energy = -19928.33980203 eV

CRYSTAL
PRIMVEC
        6.18502424     0.00000000     0.00000000
        0.00003390     6.58273617     0.00000000
        0.00000000     0.00000000    11.06983339
PRIMCOORD
24 1
Ti      2.24179390     3.90092337     4.10682931     0.03682027    -0.87187118     0.62644155
Ti      3.94326425     2.68181287     6.96300439    -0.03682027     0.87187118    -0.62644155
Ti      5.33419774     2.68181513     1.42804331     0.03682078     0.87198096    -0.62681847
Ti      0.85086040     3.90092136     9.64179053    -0.03682078    -0.87198096     0.62681847
Ti      2.24177707     0.60955541     1.42808770     0.03682027    -0.87187118    -0.62644155
Ti      3.94328107     5.97318102     9.64174613    -0.03682027     0.87187118     0.62644155
Ti      0.85084358     0.60955295     6.96296000    -0.03682078    -0.87198096    -0.62681847
Ti      5.33421456     5.97318347     4.10687371     0.03682078     0.87198096     0.62681847
O       1.95761116     2.31789337     5.64885136     1.38434853     1.27563479     0.02264089
O       4.22744698     4.26484293     5.42098234    -1.38434853    -1.27563479    -0.02264089
O       1.13496100     2.31791989     0.11397014    -1.38381169     1.27591582     0.02170346
O       5.05009721     4.26481641    10.95586325     1.38381169    -1.27591582    -0.02170346
O       4.22743016     0.97347478     0.11393422    -1.38434853    -1.27563479     0.02264089
O       1.95762798     5.60926146    10.95589916     1.38434853     1.27563479    -0.02264089
O       5.05008038     0.97344826     5.64888728     1.38381169    -1.27591582     0.02170346
O       1.13497769     5.60928804     5.42094643    -1.38381169     1.27591582    -0.02170346
O       0.22473683     4.00399331     2.99023824     0.48810458    -0.28382084     0.32775844
O       5.96032131     2.57874293     8.07959547    -0.48810458     0.28382084    -0.32775844
O       3.31725391     2.57868158     2.54471381     0.48848253     0.28398796    -0.32797338
O       2.86780423     4.00405466     8.52511971    -0.48848253    -0.28398796     0.32797338
O       0.22472001     0.71262516     2.54467846     0.48810458    -0.28382084    -0.32775844
O       5.96033813     5.87011108     8.52515506    -0.48810458     0.28382084     0.32775844
O       2.86778741     0.71268651     8.07963076    -0.48848253    -0.28398796    -0.32797338
O       3.31727073     5.87004973     2.99020289     0.48848253     0.28398796     0.32797338
