# total energy = -4988.85176998 eV

CRYSTAL
PRIMVEC
        3.15365385     0.00000000     0.00000000
        0.73705002     4.88602400     0.00000000
       -0.00000463    -0.00006414     4.95533734
PRIMCOORD
6 1
Ti      1.94534933     2.44297984     2.47766861     0.00000000     0.00000000     0.00000000
Ti      0.00000000     0.00000000     0.00000000     0.00000000     0.00000000     0.00000000
O       1.72046607     0.95220155     0.96572223     0.16465788    -0.34220264    -0.43116696
O       2.17023259     3.93375812     3.98961495    -0.16465788     0.34220264     0.43116696
O       0.22488125     1.49075230     3.44339190    -0.16479286     0.34357870    -0.43272608
O       0.51216369     3.39520748     1.51194528     0.16479286    -0.34357870     0.43272608
