# total energy = -19958.41264269 eV

CRYSTAL
PRIMVEC
        7.60600008     0.00000000     0.00000000
        0.00000000     7.60600008     0.00000000
       -1.89786986    -1.89786986     4.85670466
PRIMCOORD
24 1
Ti      3.90567599     6.53585599     1.20144699    -3.18320379    -2.16570347    -1.08820285
Ti      3.74842599     2.63650002     1.39283500    -0.52613481     1.57973162    -0.44126754
Ti      0.04020202     6.91092402     1.17712098     2.26186611    -2.86263184    -0.38305877
Ti     -0.00388300     2.86624100     1.14524101     0.31532381     2.95926833     0.83789969
Ti      5.67369322     2.92102222     3.61382283     0.16290079     0.67316622     1.21429545
Ti      5.83587223    -0.80173179     3.53309879    -0.53719904    -0.69263282    -0.76906815
Ti      1.71336121     2.57924521     3.59089379     0.58704786     1.76468708     2.37283933
Ti      1.91638424    -0.99701375     3.76187381     0.79220989    -1.55549459    -0.89952957
O       3.85315599     4.66481499     0.80191002    -0.34453978     0.67967857     0.13466389
O       3.82464403     0.87260201     0.87762200     0.72783355    -0.09600374    -0.71726683
O       0.04559698     4.90298597     0.94156598    -0.61361405     0.39836764    -1.16728487
O      -0.05567400     1.12878598     0.53112700    -0.98768348    -1.65089901     1.72397673
O       5.99904023     4.93675923     3.95633783    -0.84763235    -0.84889733     0.58468193
O      -1.57559176     1.13354022     4.08818081    -1.77258397    -0.48834317    -0.54513526
O       1.68559824     4.63639420     3.93570182     0.72790169     1.17366969     0.61477362
O       1.58348624     0.87303620     4.38484583     0.89903283    -0.20180416    -2.39963590
O       3.58328925     2.60778025     3.38074380     1.90339095     0.19618861    -0.85845181
O       3.76101623    -0.92587677     3.21794580     1.36460374     0.16354485     0.56668909
O      -0.09415180     2.69580021     3.14446779     0.25738372     0.63478272    -0.72724785
O       0.12866521    -0.67409477     3.25303581    -1.79248611    -0.43880751    -2.24263502
O       5.65465702     6.78962299     1.49749801     3.99469078     0.51455609     1.26525525
O       5.57054699     2.96855102     1.72682702     0.85401769    -0.38867818    -0.05069189
O       2.08536398     6.74907600     1.51429002    -3.82220158     0.42354029     0.83918319
O       1.80753301     2.63800902     1.44794601    -0.42092497     0.22871462     2.13521815
