# total energy = -4988.09228304 eV

CRYSTAL
PRIMVEC
        3.47562088     0.00000000     0.00000000
        0.00000000     4.45563565     0.00000000
        0.00000000    -0.00006543     5.00071349
PRIMCOORD
6 1
Ti      1.73781044     2.22778506     2.50035686     0.00000000     0.00000000     0.00000000
Ti      0.00000000     0.00000000     0.00000000     0.00000000     0.00000000     0.00000000
O       1.73781044     0.86832500     0.97456547     0.00000000     0.15607965     0.10385332
O       1.73781044     3.58724511     4.02614825     0.00000000    -0.15607965    -0.10385332
O       0.00000000     1.35943358     3.47492323     0.00000000    -0.15603877     0.10403021
O       0.00000000     3.09613653     1.52579049     0.00000000     0.15603877    -0.10403021
