# total energy = -19935.64451396 eV

CRYSTAL
PRIMVEC
        6.03163667     0.00000000     0.00000000
        0.32080685     6.41146438     0.00000000
        0.00000000     0.00000000    10.79867897
PRIMCOORD
24 1
Ti      2.37628795     3.79942770     4.00623288     0.02526675    -1.08866256     0.68620378
Ti      3.97615532     2.61203644     6.79244622    -0.02526675     1.08866256    -0.68620378
Ti      5.33259400     2.61203863     1.39306352     0.04629222     0.54967018    -0.53336449
Ti      1.01984934     3.79942575     9.40561570    -0.04629222    -0.54967018     0.53336449
Ti      2.21588465     0.59369575     1.39310679     0.02526675    -1.08866256    -0.68620378
Ti      4.13655862     5.81776858     9.40557242    -0.02526675     1.08866256     0.68620378
Ti      0.85944604     0.59369337     6.79240288    -0.04629222    -0.54967018    -0.53336449
Ti      5.49299730     5.81777095     4.00627621     0.04629222     0.54967018     0.53336449
O       2.02201254     2.25758550     5.51048322     1.43820571     1.41003155    -0.12580618
O       4.33043073     4.15387864     5.28819587    -1.43820571    -1.41003155     0.12580618
O       1.21976531     2.25761138     0.11117845    -1.21241777     1.01303919     0.20228753
O       5.13267802     4.15385282    10.68750034     1.21241777    -1.01303919    -0.20228753
O       4.17002743     0.94814650     0.11114343    -1.43820571    -1.41003155    -0.12580618
O       2.18241584     5.46331764    10.68753536     1.43820571     1.41003155     0.12580618
O       4.97227472     0.94812069     5.51051830     1.21241777    -1.01303919     0.20228753
O       1.38016849     5.46334357     5.28816079    -1.21241777     1.01303919    -0.20228753
O       0.41427621     3.89981594     2.91699264     0.43407565     0.06030165     0.55164941
O       5.93816712     2.51164820     7.88168651    -0.43407565    -0.06030165    -0.55164941
O       3.36064446     2.51158846     2.48238124     0.51368141     0.58119320    -0.09385507
O       2.99179888     3.89987568     8.31629767    -0.51368141    -0.58119320     0.09385507
O       0.25387291     0.69408381     2.48234678     0.43407565     0.06030165    -0.55164941
O       6.09857042     5.71738033     8.31633213    -0.43407565    -0.06030165     0.55164941
O       2.83139558     0.69414355     7.88172091    -0.51368141    -0.58119320    -0.09385507
O       3.52104776     5.71732059     2.91695812     0.51368141     0.58119320     0.09385507
