# total energy = -19518.22814539 eV

CRYSTAL
PRIMVEC
        5.93400000     0.00000000     0.00000000
        0.00000000     9.29699974     0.00000000
        0.00000000     0.00000000     4.64899994
PRIMCOORD
23 1
Ti      4.53128701     7.01930201     2.19955202    -0.64829079     0.72291914     0.20262409
Ti      4.44898502     2.37193399     2.37131099     0.50789514    -0.16073335    -0.09012543
Ti      1.37818002     6.93664701     2.22723502     0.83229623     1.17657118     0.79992885
Ti      1.46887100     2.31602700     2.32186102    -0.20397340    -0.02614684    -0.17851484
Ti      3.00514098     4.51628901     0.12580300     0.21674768    -0.71116997    -0.19190130
Ti      2.98343598     9.29162002     4.60886799    -0.55517260    -0.36210196    -0.33682158
Ti      0.07511899     4.69156702     0.02227598    -0.30344351    -0.62835933    -0.39644549
Ti      5.91922400     0.09250299     4.62463101     0.62710284    -0.27515313    -0.60829264
O       4.40511400     5.51708702     0.96981097    -0.02603911     0.81690303     0.11560970
O       4.35922201     0.93207201     0.93461899     0.45193634    -0.28804285    -0.39339513
O       1.51466298     5.44010099     1.03387698     0.18832052     0.91856371     0.01591333
O       1.48904599     0.95817902     0.86025700    -0.04300403    -0.29948992    -0.09946265
O       4.46185900     8.42297102     3.64770901    -0.25506098    -0.06966124     0.47620525
O       4.51682300     3.74811801     3.85038702    -0.96512281    -0.37555552    -0.92760371
O       1.40764202     8.32763301     3.67677402     0.41321988     0.44325012     0.68398260
O       1.45792698     3.63331999     3.84867402     0.43815265     0.97417284    -0.34925544
O       2.96400100     1.44525297     3.24020400     0.03194417    -0.17059353    -0.03557894
O       5.88536602     6.04626803     3.29305701    -0.16594420     0.10174733    -0.44309971
O       0.07948999     1.41267899     3.14604400    -1.36303151    -0.52766590     0.93692808
O       2.91501702     7.79560202     1.37552699     0.30315323    -0.48471792     0.57120549
O       2.90955300     3.35942600     1.51382101     0.91895658    -0.85814302     0.46642348
O       0.02999498     7.88147500     1.42237701    -0.47893293     0.27765148    -0.82627444
O       5.87425801     3.24781500     1.40531602     0.07829063    -0.19424460     0.60795042
