# total energy = -4985.89943187 eV

CRYSTAL
PRIMVEC
        3.31308934     0.00000000     0.00000000
        1.76290101     4.88260662     0.00000000
       -0.00001145    -0.00006878     5.27495107
PRIMCOORD
6 1
Ti      2.53798943     2.44126886     2.63747553     0.00000000     0.00000000     0.00000000
Ti      0.00000000     0.00000000     0.00000000     0.00000000     0.00000000     0.00000000
O       2.00010584     0.95153470     1.02801028     0.79991806    -0.10026355    -0.58485677
O       3.07587303     3.93100302     4.24694084    -0.79991806     0.10026355     0.58485677
O       0.53787878     1.48970636     3.66548687    -0.80039474     0.10114338    -0.58482951
O       1.22501087     3.39283135     1.60946426     0.80039474    -0.10114338     0.58482951
