# total energy = -19914.39326764 eV

CRYSTAL
PRIMVEC
        7.78950775     0.00000000     0.00000000
        0.00002551     3.55302496     0.00000000
        0.00000000     0.00000000    11.85502197
PRIMCOORD
24 1
Ti      2.82333690     2.10551932     4.39812860    -0.11999060     0.05062555     2.14823128
Ti      4.96619602     1.44750570     7.45689354     0.11999060    -0.05062555    -2.14823128
Ti      6.71795745     1.44750691     1.52933506    -0.12061641    -0.05038156    -2.14878432
Ti      1.07157547     2.10551822    10.32568720     0.12061641     0.05038156     2.14878432
Ti      2.82332431     0.32900689     1.52938261    -0.11999060     0.05062555    -2.14823128
Ti      4.96620860     3.22401818    10.32563964     0.11999060    -0.05062555     2.14823128
Ti      1.07156289     0.32900557     7.45684599     0.12061641     0.05038156    -2.14878432
Ti      6.71797003     3.22401951     4.39817616    -0.12061641    -0.05038156     2.14878432
O       2.46543727     1.25108048     6.04952701     3.06836208     0.33422168    -0.87467445
O       5.32409564     2.30194449     5.80549513    -3.06836208    -0.33422168     0.87467445
O       1.42937992     1.25109481     0.12205408    -3.06990063     0.33426745    -0.87548152
O       6.36015305     2.30193021    11.73296772     3.06990063    -0.33426745     0.87548152
O       5.32408311     0.52543200     0.12201563    -3.06836208    -0.33422168    -0.87467445
O       2.46544980     3.02759302    11.73300617     3.06836208     0.33422168     0.87467445
O       6.36014052     0.52541767     6.04956547     3.06990063    -0.33426745    -0.87548152
O       1.42939234     3.02760735     5.80545667    -3.06990063     0.33426745     0.87548152
O       0.28302623     2.16115118     3.20233722    -1.07514729     0.23509765     0.29269732
O       7.50650668     1.39187379     8.65268492     1.07514729    -0.23509765    -0.29269732
O       4.17779001     1.39184068     2.72521154    -1.07303410    -0.23482151    -0.29349153
O       3.61174290     2.16118434     9.12981043     1.07303410     0.23482151     0.29349153
O       0.28301370     0.38463870     2.72517371    -1.07514729     0.23509765    -0.29269732
O       7.50651921     3.16838632     9.12984826     1.07514729    -0.23509765     0.29269732
O       3.61173038     0.38467180     8.65272270     1.07303410     0.23482151    -0.29349153
O       4.17780254     3.16835322     3.20229939    -1.07303410    -0.23482151     0.29349153
