# total energy = -79406.35002773 eV

CRYSTAL
PRIMVEC
       10.35150501     0.00002646     0.00000000
        0.00002858    11.01713167     0.00000000
        0.00000000     0.00000000     9.26345890
PRIMCOORD
95 1
Ti      7.01080256     8.84209531     3.48991037     0.06353250    -0.16227267    -0.18705220
Ti      7.13980070     3.23433045     3.42175060     0.02000113    -0.05299277    -0.04593072
Ti      1.86573863     8.79626746     3.44676586    -0.14245845     0.11834741     0.09814856
Ti      1.77186413     3.17699964     3.47225777    -0.04019047    -0.18147161     0.11884466
Ti      8.48904991     7.74366835     5.80447861    -0.08449574    -0.08040897    -0.05739167
Ti      8.50751314     2.22784002     5.83488660    -0.07605429    -0.02456896    -0.04923304
Ti      3.26420265     7.73161803     5.81732052     0.12081438    -0.05070757    -0.04219799
Ti      3.31242603     2.24770434     5.81065104     0.14261040    -0.14957475     0.01182939
Ti      9.51606332     7.79658703     1.21858090     0.11938691    -0.13006444    -0.02643121
Ti      9.65763560     2.17700348     1.16031194    -0.00696178     0.00214790    -0.04193394
Ti      4.46605945     7.69663244     1.21238796     0.06819237     0.01410713     0.03263888
Ti      4.47626002     2.25548739     1.20832936     0.08780218    -0.07013561     0.03192231
Ti      5.89668156     8.79807528     8.10171824     0.02469983     0.10063430    -0.01076444
Ti      5.90893477     3.25678409     8.04788046     0.04388258     0.17431572     0.22820889
Ti      0.66109718     8.92323907     7.91726179     0.05597885    -0.15945782     0.24010744
Ti      0.72508093     3.30226340     8.08976989    -0.01482781    -0.07497545    -0.08715323
Ti      7.01140462     6.00226820     1.17193199     0.11806999     0.13920549     0.13188787
Ti      7.02562021     0.54634960     1.22862798     0.02813071    -0.04836015     0.00136037
Ti      1.73844971     6.30676861     0.95569120    -0.11944758     0.09844012    -0.34423356
Ti      1.87708374     0.49797510     1.17400890     0.03285485     0.12555113    -0.05828025
Ti      8.39844733    10.47928476     8.11667127     0.23611272     0.00851653    -0.14856662
Ti      8.50940534     4.96855614     8.10738744    -0.06508030    -0.06980419    -0.10546849
Ti      3.33766651    10.48709413     8.10082295    -0.04310662    -0.09883067    -0.00497406
Ti      3.29531464     4.94980884     8.08603700     0.15143906     0.03071261    -0.06774988
Ti      5.90130947     6.14224542     5.97841910     0.00996637    -0.08230618    -0.14577080
Ti      5.89393000     0.55028014     5.83589375     0.03772941     0.00758681    -0.01936710
Ti      0.73700129     6.01397449     5.82279504    -0.04064556     0.06948897    -0.08155079
Ti      0.73784907     0.54165774     5.83949683    -0.31182274    -0.23671256     0.14626369
Ti      9.64547875    10.51034355     3.45340273    -0.07891464    -0.15040676    -0.03957829
Ti      9.64870868     5.01600823     3.39156264     0.02827546    -0.08699125    -0.02042742
Ti      4.43663842    10.49790431     3.44942296    -0.00213479    -0.14436750     0.04458860
Ti      4.70951001     4.95537812     3.63275658     0.15626657    -0.20661675     0.01899275
O       6.82602857     7.44246436     4.72564286    -0.01041246    -0.00407083     0.15067184
O       6.83255147     1.93305354     4.72532256    -0.00704097     0.00377875     0.00456859
O       1.63244449     7.46478048     4.76406518     0.04132381    -0.08675625    -0.10737831
O       1.60693534     1.90813571     4.69948330     0.00548854    -0.24673009     0.27956875
O       8.72465545     9.08470027     4.54130014    -0.03711337     0.00655246    -0.00757447
O       8.76143605     3.56952318     4.53571061    -0.08409053    -0.03667192     0.04360747
O       3.52874241     9.08422792     4.54595958     0.01771722    -0.00566414    -0.00643470
O       3.53112390     3.60175010     4.42949538    -0.40014016     0.21150314    -0.38875531
O       6.12867294     7.42296409     0.11682695    -0.12319934    -0.06400301     0.00297862
O       6.11836683     1.91871018     0.09119424     0.02712926    -0.02577455    -0.03815159
O       0.89995660     7.47805599    -0.05388379     0.03194031    -0.02916583     0.26626431
O       0.92814105     1.90346974     0.07979835     0.15761022     0.07316694     0.03048687
O       9.36475490     9.11656244     9.16921162     0.14615544    -0.04174959    -0.06222843
O       9.40770425     3.56594743     9.15918091     0.05777425     0.00187279     0.03457467
O       4.20586945     9.03795915     9.18105823     0.00983190     0.10371217     0.03693263
O       4.24629353     3.57030772     9.17177714    -0.13358840     0.04740448     0.04842726
O       8.72394066     6.31799772     0.10740345    -0.11245264     0.07521508     0.01014712
O       8.69902107     0.82062215     0.09026812    -0.03111704     0.05444184     0.03484772
O       3.53972916     6.31442543     0.08360655    -0.02794045    -0.00195815     0.08230721
O       3.53465847     0.82519053     0.12773236    -0.00617965    -0.09957243    -0.09414509
O       6.80001507    10.18649692     9.17598690    -0.12005976     0.01175920     0.11858138
O       6.82406295     4.66536204     9.15575930     0.04398851     0.03958446     0.10614752
O       1.64296258    10.19575220     9.19087127    -0.14265308    -0.07154791    -0.16288227
O       1.67087916     4.65862001     9.19861652    -0.05705254     0.09863912     0.21931210
O       9.42545087     6.29462197     4.73338955    -0.07418947     0.12061409    -0.05899527
O       9.39534007     0.81406389     4.73194205     0.00714998     0.01425034    -0.02415501
O       4.22352968     6.34150811     4.73902948    -0.01941981    -0.02710741     0.03913915
O       4.21020750     0.84536983     4.71105614    -0.04992030    -0.06319028    -0.01644555
O       6.10430547    10.20584069     4.54572199     0.04323929    -0.04423199     0.01343633
O       6.17348090     4.70362321     4.59193451     0.30395773    -0.08425174     0.14907185
O       0.94622061    10.18035036     4.53895033     0.01742360     0.05827587    -0.01459204
O       1.05436176     4.74260621     4.42907399     0.03623714     0.01153114    -0.03178039
O       5.34939313     8.83926100     2.50531048    -0.01147304     0.02201508     0.05850830
O       5.44185592     3.34160386     2.49209849    -0.15062222     0.09891629     0.14278164
O       0.20723363     8.85087803     2.48662322    -0.11581487     0.05630024    -0.10769995
O       0.14902943     3.36721280     2.48551308     0.20056463     0.04802051    -0.06210399
O      10.16308706     7.65603545     6.73720168     0.09485394     0.09667223     0.04025475
O      10.17717900     2.12406741     6.77142328     0.03067661     0.12785587    -0.02242774
O       5.00119064     7.65176913     6.77809316    -0.16106759     0.05025197     0.07861177
O       4.97080307     2.15188193     6.74131371    -0.03148368     0.09401525     0.04938808
O       7.91656121     7.66374479     2.14664814     0.13899620     0.04738082    -0.11039241
O       7.96593584     2.11585563     2.13093868    -0.03114430     0.09430450     0.09302640
O       2.76185457     7.49425957     2.17007252    -0.07376832     0.08688866    -0.00916444
O       2.77121343     2.24526400     2.12795032     0.05384252     0.24118499    -0.01547959
O       7.55586573     8.83966213     7.13092885    -0.04643980     0.02312965     0.01364305
O       7.57632396     3.34004870     7.12558010     0.08650017     0.01944860    -0.03003718
O       2.38586270     8.86718821     7.13438554    -0.02940495     0.10776449    -0.04821309
O       2.39318731     3.35782106     7.08268408    -0.01049268    -0.04609475     0.12950060
O       5.34291969     6.03666451     2.13063424    -0.13282658     0.04887360     0.05447218
O       5.35713437     0.59272720     2.14412313     0.01481444    -0.01271257    -0.01071662
O       0.21053311     6.16958262     2.08315847    -0.09051418    -0.25608840     0.17276611
O       0.19699701     0.62040387     2.15498964     0.08078435    -0.03570569    -0.02418715
O      10.13074240    10.42727651     7.11577315     0.00361112    -0.03209946    -0.01019417
O      10.18575603     4.88932344     7.12210725    -0.01729659    -0.02867321    -0.03004438
O       4.99213175    10.40611662     7.14694974    -0.04490022     0.06193276    -0.02734266
O       4.99137669     4.89320318     7.14142546     0.08309166     0.05161569    -0.09039694
O       7.58637006     6.10284890     6.78858600    -0.02886861     0.00850213     0.01879246
O       7.55220967     0.59020859     6.77065859    -0.01243874     0.09595823    -0.03270470
O       2.39412837     6.10831362     6.78814426     0.01707547    -0.02457744    -0.07908382
O       2.38883380     0.56438583     6.77715761     0.15201267     0.37346007    -0.25178900
O       7.95032618    10.41587657     2.49889252     0.04052343    -0.05437731     0.08295153
O       7.96486494     4.91994153     2.51147053     0.04917931    -0.05713790    -0.08731752
O       2.78189309    10.38042934     2.49026386    -0.08797290     0.06509239    -0.06369165
