# total energy = -4986.33101101 eV

CRYSTAL
PRIMVEC
        3.95337267     0.00000000     0.00000000
       -0.00000736     3.23457745     0.00000000
       -1.97671271    -1.61732569     4.63304170
PRIMCOORD
6 1
Ti     -0.00017159     2.42605364     1.15826055    -0.00271303    -0.00906726     7.46995888
Ti      1.97682418    -0.80880208     3.47478130     0.00271303     0.00906726    -7.46995888
O       0.00004078     0.80863755     0.75468469     0.00213659     0.00393096    -1.30401284
O       1.97661171     0.80861391     3.87835721    -0.00213659    -0.00393096     1.30401284
O      -0.00001912    -0.80863020     3.07120544    -0.00030519    -0.00044274     1.01364597
O       1.97667151     2.42588166     1.56183641     0.00030519     0.00044274    -1.01364597
