# total energy = -4987.97322964 eV

CRYSTAL
PRIMVEC
        3.05136669     0.00000000     0.00000000
        0.00000000     3.91175524     0.00000000
        0.00000000    -0.00005744     4.39029776
PRIMCOORD
6 1
Ti      1.52568334     1.95584885     2.19514898     0.00000000     0.00000000     0.00000000
Ti      0.00000000     0.00000000     0.00000000     0.00000000     0.00000000     0.00000000
O       1.52568334     0.76233228     0.85560443     0.00000000    -0.15693222    -0.36774631
O       1.52568334     3.14936543     3.53469354     0.00000000     0.15693222     0.36774631
O       0.00000000     1.19349333     3.05075419     0.00000000     0.15708623    -0.36810960
O       0.00000000     2.71820437     1.33954377     0.00000000    -0.15708623     0.36810960
