# total energy = -19905.00859019 eV

CRYSTAL
PRIMVEC
        6.65796621     0.00000000     0.00000000
        3.03511874     6.40318002     0.00000000
        0.00000000     0.00000000    12.24557331
PRIMCOORD
24 1
Ti      4.21180101     3.79451852     4.54302033    -0.16395700    -2.13066061     0.41026774
Ti      5.48128372     2.60866142     7.70255305     0.16395700     2.13066061    -0.41026774
Ti      6.97857686     2.60866359     1.57971745    -0.26806280    -1.31683622     0.35282825
Ti      2.71450800     3.79451659    10.66585613     0.26806280     1.31683622    -0.35282825
Ti      2.69424180     0.59292861     1.57976653    -0.16395700    -2.13066061    -0.41026774
Ti      6.99884298     5.81025152    10.66580705     0.16395700     2.13066061     0.41026774
Ti      1.19694862     0.59292625     7.70250397     0.26806280     1.31683622     0.35282825
Ti      8.49613622     5.81025387     4.54306947    -0.26806280    -1.31683622    -0.35282825
O       3.17600518     2.25466851     6.24882233     1.78819340     2.00371620    -0.83335115
O       6.51707955     4.14851143     5.99675111    -1.78819340    -2.00371620     0.83335115
O       2.29046282     2.25469437     0.12607506    -0.01418812    -1.02295285     1.73748351
O       7.40262201     4.14848568    12.11949805     0.01418812     1.02295285    -1.73748351
O       4.99952031     0.94692139     0.12603528    -1.78819340    -2.00371620    -0.83335115
O       4.69356444     5.45625861    12.11953776     1.78819340     2.00371620     0.83335115
O       5.88506275     0.94689557     6.24886205     0.01418812     1.02295285     1.73748351
O       3.80802193     5.45628444     5.99671133    -0.01418812    -1.02295285    -1.73748351
O       2.08803053     3.89477710     3.30783486     0.64531679     2.99717978     2.81136351
O       7.60505413     2.50840284     8.93773858    -0.64531679    -2.99717978    -2.81136351
O       4.75985470     2.50834326     2.81499078     0.54420247     2.16078367     1.84364749
O       4.93323003     3.89483668     9.43058240    -0.54420247    -2.16078367    -1.84364749
O       0.57047128     0.69318700     2.81495166     0.64531679     2.99717978    -2.81136351
O       9.12261339     5.70999295     9.43062152    -0.64531679    -2.99717978     2.81136351
O       3.41567077     0.69324657     8.93777757    -0.54420247    -2.16078367     1.84364749
O       6.27741396     5.70993336     3.30779574     0.54420247     2.16078367    -1.84364749
