# total energy = -19942.75339826 eV

CRYSTAL
PRIMVEC
        5.09351879     0.00000000     0.00000000
        2.08504090     5.00403079     0.00000000
        0.00000000     0.00000000     9.31170628
PRIMCOORD
24 1
Ti      3.08174893     2.96538410     3.45457661     3.16592648    -3.60563594     1.23286036
Ti      4.09681085     2.03864682     5.85712977    -3.16592648     3.60563594    -1.23286036
Ti      5.24227930     2.03864853     1.20123935    -6.57072293     0.93735514     1.83098943
Ti      1.93628051     2.96538260     8.11046708     6.57072293    -0.93735514    -1.83098943
Ti      2.03922858     0.46336869     1.20127668     3.16592648    -3.60563594    -1.23286036
Ti      5.13933123     4.54066239     8.11042975    -3.16592648     3.60563594     1.23286036
Ti      0.89376004     0.46336685     5.85709239     6.57072293    -0.93735514     1.83098943
Ti      6.28479976     4.54066423     3.45461394    -6.57072293     0.93735514    -1.83098943
O       2.34630919     1.76200436     4.75169245    -0.36595296     0.74357565    -1.17368563
O       4.83225053     3.24202658     4.56001393     0.36595296    -0.74357565     1.17368563
O       1.66884511     1.76202458     0.09586924     1.35105273    -0.61555472    -0.51702744
O       5.50971474     3.24200644     9.21583683    -1.35105273     0.61555472     0.51702744
O       3.78973016     0.74001106     0.09583901     0.36595296    -0.74357565    -1.17368563
O       3.38882961     4.26401986     9.21586706    -0.36595296     0.74357565     1.17368563
O       4.46719430     0.73999089     4.75172263    -1.35105273     0.61555472    -0.51702744
O       2.71136538     4.26404011     4.55998370     1.35105273    -0.61555472     0.51702744
O       1.45329941     3.04373534     2.51532419     0.15691063    -1.29448304    -1.23106239
O       5.72526031     1.96029560     6.79638219    -0.15691063     1.29448304     1.23106239
O       3.54861024     1.96024903     2.14055862     2.04343102    -1.47207075    -2.39692107
O       3.62994948     3.04378190     7.17114761    -2.04343102     1.47207075     2.39692107
O       0.41077903     0.54171977     2.14052885     0.15691063    -1.29448304     1.23106239
O       6.76778074     4.46231116     7.17117733    -0.15691063     1.29448304    -1.23106239
O       2.58742911     0.54176639     6.79641186    -2.04343102     1.47207075    -2.39692107
O       4.59113061     4.46226455     2.51529447     2.04343102    -1.47207075     2.39692107
