# total energy = -4871.02216791 eV

CRYSTAL
PRIMVEC
        5.10097273     0.00000000     0.00000000
       -0.00000662     1.93485146     0.00000000
       -2.55051695    -0.96751757     5.62964039
PRIMCOORD
6 1
Ti     -0.00021796     1.45119335     1.40740985    -0.06492424    -0.05530831   115.85401672
Ti      2.55066717    -0.48385971     4.22223009     0.06492424     0.05530831  -115.85401672
O       0.00005415     0.48369747     0.91702234     0.06365668     0.05667870  -108.40432971
O       2.55039492     0.48363613     4.71261765    -0.06365668    -0.05667870   108.40432971
O      -0.00002211    -0.48375076     3.73184253    -0.00058801     0.00008767     0.24443821
O       2.55047109     1.45108431     1.89779746     0.00058801    -0.00008767    -0.24443821
