# total energy = -19517.54180718 eV

CRYSTAL
PRIMVEC
        5.17600016     0.00000000     0.00000000
        0.00000000     5.50899976     0.00000000
        0.00000000     0.00000000     9.26300011
PRIMCOORD
23 1
Ti      1.94334598     3.21910100     3.41013398    -0.09285902    -0.93969485     3.33852650
Ti      3.37242899     2.33922899     5.89896302    -0.47692567     0.12042049    -2.70960615
Ti      4.30871998     2.10451803     1.55891898     1.38982139    -0.60789592    -1.28486969
Ti      0.67863903     3.40164900     7.83274798    -0.10409244     1.37903637     0.04963928
Ti      2.00676798     0.14202599     1.40402102    -0.13026808     0.29851264    -1.23274081
Ti      3.11863998     5.20213898     7.90138402     0.75089893     0.13006110     0.80120721
Ti      0.76820100     0.59446100     5.84803802    -0.83871730    -0.82971098    -2.91925064
Ti      4.61645999     4.84465598     3.34452997     0.79510186     1.00282188     3.32659169
O       1.84404899     1.78712598     4.69685699    -0.08564322     0.52886506     0.62393421
O       3.65601000     3.60009301     4.42885602     0.03669506    -1.24482705     0.93281946
O       4.80530599     2.86544602     9.21549798     0.01492012     0.35543406    -0.66098716
O       3.49240199     0.67291999     0.24213600    -0.22336390     0.15580762     0.30229294
O       1.64811498     4.71024798     9.03038299    -0.16444216    -0.89917733     0.64994195
O       4.30713303     0.72750399     4.77747201     0.50067805    -0.04334470    -0.03105148
O       1.08100599     4.66174301     4.54956500    -0.25531912    -0.42922321    -0.73810049
O       0.37964001     3.30264602     2.44282702    -0.57895660     0.12065755    -0.52159835
O       0.00626001     2.29441598     6.45683199    -0.53221084     0.20211707     1.13560244
O       2.79861501     1.58957400     2.41379699    -1.17850877     1.34412284     0.11244904
O       2.43635000     3.77446897     6.79385303    -0.06598404    -0.87447596     1.00186311
O       0.23007299     0.66223300     2.05493502     0.57531591    -0.45689163    -0.23393114
O       4.91618201     4.92901298     7.23159099     0.17952220     0.01323064     0.02240049
O       2.29173602     1.04121000     7.04532599     0.16626096     0.70489056     0.04425179
O       2.95773300     4.43919598     2.38912902     0.31807643    -0.03073575    -2.00938343
