# total energy = -19517.49545297 eV

CRYSTAL
PRIMVEC
        5.17600016     0.00000000     0.00000000
        0.00000000     5.50899976     0.00000000
        0.00000000     0.00000000     9.26300011
PRIMCOORD
23 1
Ti      1.91928302     3.17807103     3.37745898    -0.38722988     0.80109768     3.03973772
Ti      3.34521701     2.26003899     5.83405101     0.72316314     0.08685730    -2.43390100
Ti      4.37916802     2.00911298     1.56724600     0.94921719     1.03157994    -2.55404818
Ti      0.88277502     3.39374399     7.75253598    -1.02939141    -0.34882632     2.51314346
Ti      1.98931302     0.28131798     1.31189300     0.22725861    -0.35718087    -1.53933058
Ti      3.19653698     5.20118699     7.84540903    -0.15840675     0.03788136     1.89767127
Ti      0.68066101     0.57090002     5.92811799    -0.36738790    -0.46867834    -3.01176051
Ti      4.47748100     4.89171101     3.32403600     0.69969205     0.59776448     3.57603996
O       1.69998001     2.01123598     4.90657898    -0.77845936     0.07481167    -1.16654336
O       3.56163002     3.65839500     4.46943402    -0.29257134    -0.48076407     0.34599708
O       0.09280002     2.61481301     0.06460402     0.28999380     0.27361356     0.34897031
O       3.33522497     0.89164700     0.12063601     0.37168087     0.58952795     0.53172464
O       1.83174800     4.60625999     9.08255199    -0.14248699    -0.48109857    -0.19973982
O       4.20719002     0.85646100     4.80486402     0.68870135    -0.78821156    -0.38600115
O       1.04497002     4.81474302     4.34847002    -0.65451106     0.56177185     1.27536123
O       0.17446000     3.33755902     2.69976999    -0.18504391    -1.29421359    -1.70233343
O       5.05013397     2.12367599     6.80297101    -0.47554833     0.17619314    -0.09939760
O       2.66363501     1.77306701     2.40500302     0.00914310     0.20587242    -0.51647542
O       2.54853600     3.56945798     6.92330100     0.36339009     0.59307967     0.96137465
O       0.24226798     0.60725402     2.05254001     0.07439541    -0.48623230    -0.18639939
O       5.04361202     4.91117801     7.45138502    -0.52504826     0.36414573    -1.15232053
O       2.32070201     0.93465302     6.89216299     0.07936201    -0.05058802     0.42514055
O       2.86248802     4.53202198     2.25365499     0.52008757    -0.63840335     0.03308985
