# total energy = -19961.31984607 eV

CRYSTAL
PRIMVEC
        7.60600008     0.00000000     0.00000000
        0.00000000     7.60600008     0.00000000
       -1.89786986    -1.89786986     4.85670466
PRIMCOORD
24 1
Ti      3.81652798     6.52021801     1.24430098     0.99118275    -0.00355429    -0.57892060
Ti      3.83915899     2.70509298     1.26716297     0.49391141     0.11312241    -1.17798632
Ti      0.07269001     6.72760998     1.21370300    -0.88921353     0.52543032    -1.12140274
Ti      0.01669999     2.91245199     1.25442298    -1.06931552    -0.62589647    -0.35611926
Ti      5.69164323     2.88996021     3.67800779    -0.91222183    -0.00689159    -1.35745221
Ti      5.72764723    -0.84218776     3.60942383    -1.33939355     0.10371551    -0.33458986
Ti      1.82435524     2.78518623     3.59219181     1.42354527     0.07950985     2.00323489
Ti      1.83509923    -0.97777880     3.59529083     2.11984295    -0.34438731     1.61373473
O       3.84176101     4.66648301     0.81948902    -0.07511789     0.13762169    -0.15464111
O       3.86011599     0.82520599     0.78136598    -0.31530787     1.47367769    -0.10332959
O      -0.04257199     4.74043500     0.69675800     0.38861930     0.73977607     1.63041425
O      -0.02944501     1.08077002     0.72374001     0.47190971    -0.87075017     0.33385504
O       5.74481723     4.86505222     4.08639182     0.09587184    -0.34378773     0.04757108
O       5.45288522     1.03243921     3.94607481     1.00997186    -0.50805609     0.75878090
O       1.84681024     4.73642823     4.10419382    -0.12195878    -0.48434459    -0.97691132
O       1.93574022     0.91590321     4.08927483    -0.19101709     0.08716197    -0.26512763
O       3.78875221     2.88751424     3.10869880     0.05371731     0.39309868     1.59284862
O       3.73978320    -0.88279275     3.21885482     1.09960389    -0.50279304    -0.29354733
O      -0.00059379     2.86509623     3.31780382    -0.88880370     0.07577558    -0.86823203
O       0.03888024    -0.67848578     3.23638281    -0.96321351    -0.42054522    -0.88641128
O       5.74570799     6.64720600     1.56591301     0.93055663    -0.16300826     0.93509514
O       5.70626201     2.76594900     1.66314202     1.09312703     0.36752416    -0.04940994
O       1.97835698     6.59126498     1.53020201    -2.72551666    -0.06161960     0.67147315
O       1.87359598     2.73135298     1.69755802    -0.68078029     0.23922093    -1.06292684
