# total energy = -4985.72079123 eV

CRYSTAL
PRIMVEC
        4.22773314     0.00000000     0.00000000
        1.43572886     3.97648214     0.00000000
       -2.83176957    -1.98826815     5.48266731
PRIMCOORD
6 1
Ti      1.07667475     2.98251413     1.37066689     0.00059161    -0.00059161     0.00000000
Ti      1.75501694    -0.99430066     4.11200054    -0.00059161     0.00059161     0.00000000
O       0.35897625     0.99411506     0.89308176    -0.00068751    -0.00118965    -1.55189762
O       2.47271524     0.99409827     4.58958578     0.00068751     0.00118965     1.55189762
O      -0.35894197    -0.99409104     3.63441542    -0.00118965    -0.00068751    -1.55189762
O       3.19063340     2.98230432     1.84825213     0.00118965     0.00068751     1.55189762
