# total energy = -4980.66664380 eV

CRYSTAL
PRIMVEC
        2.75588795     0.00000000     0.00000000
        1.46641311     4.06144097     0.00000000
       -0.00000953    -0.00005721     4.38780021
PRIMCOORD
6 1
Ti      2.11114576     2.03069183     2.19390010     0.00000000     0.00000000     0.00000000
Ti      0.00000000     0.00000000     0.00000000     0.00000000     0.00000000     0.00000000
O       1.66372441     0.79150387     0.85511765    -8.00584691     3.46258767     4.41206043
O       2.55856711     3.26987979     3.53268261     8.00584691    -3.46258767    -4.41206043
O       0.44741734     1.23916483     3.04901862     8.00737389    -3.46527782     4.41522597
O       1.01898632     2.82221880     1.33878163    -8.00737389     3.46527782    -4.41522597
