# total energy = -4904.47538902 eV

CRYSTAL
PRIMVEC
        6.01848204     0.00000000     0.00000000
       -0.00000744     2.00616068     0.00000000
       -3.00927933    -1.00321088     6.82748625
PRIMCOORD
6 1
Ti     -0.00025757     1.50466835     1.70687114    -0.04907929    -0.03181793    90.96493905
Ti      3.00945268    -0.50171861     5.12061410     0.04907929     0.03181793   -90.96493905
O       0.00006354     0.50151842     1.11214154     0.04695582     0.03263400   -87.74676490
O       3.00913140     0.50143126     5.71534377    -0.04695582    -0.03263400    87.74676490
O      -0.00002761    -0.50160268     4.52588450    -0.00103178     0.00001337    -0.63571321
O       3.00922244     1.50455231     2.30160081     0.00103178    -0.00001337     0.63571321
