# total energy = -19959.04621420 eV

CRYSTAL
PRIMVEC
        7.60600008     0.00000000     0.00000000
        0.00000000     7.60600008     0.00000000
       -1.89786986    -1.89786986     4.85670466
PRIMCOORD
24 1
Ti      3.66348902     6.73406198     1.33462498     4.32422045    -0.71694981    -2.06990388
Ti      3.83628302     2.95417698     1.23393699    -0.04094046     0.94770126     0.43425691
Ti      0.16215102     6.50764000     1.19007402    -2.69126698     0.71214467    -0.76686240
Ti      0.01717598     2.75454999     1.16269100     0.63719288    -0.56681790     0.60733542
Ti      5.79462625     2.61162223     3.55604879    -1.00231974     2.12292801     0.07737069
Ti      5.59563624    -1.08828979     3.58358881     1.06157238    -1.51700336    -0.35148716
Ti      1.91721420     3.01516423     3.57598782     1.28287040    -0.62246533     0.21146663
Ti      1.78388424    -0.81278980     3.65687182    -0.30047928     0.71106430     2.12479746
O       3.59987800     4.88893097     1.04398998     0.28953461    -0.16815741    -1.69860250
O       3.71114403     1.17522599     0.98807098     0.10486120    -2.42807874    -1.85581087
O       0.11415697     4.67570900     0.85445399     0.56465637    -0.77291786    -0.73937035
O       0.02626799     0.78066302     0.81817899     0.42698892     0.75491062    -0.89526771
O       5.55618523     4.54559220     4.00921682     1.48385772     1.27940660     0.58016707
O       5.54279223     0.82545825     4.14169682     0.61075781     0.84871118    -1.22414278
O       1.83936323     4.83740525     4.00214981    -0.15020339     1.13436188     1.05457692
O       1.96015323     1.05919023     3.88065283     0.06528162    -0.16900073     1.96729651
O       3.90618823     2.99571723     3.22254779    -0.16533922    -0.94509262    -0.33921811
O       3.83269223    -0.84385377     3.19123780    -0.82764664    -0.08336471     1.58693868
O       0.14525122     2.80706523     3.10764679    -2.89108214    -0.25931308     1.34383796
O      -0.05990879    -0.70969279     3.02903280     1.09183685    -0.60979622     2.40871678
O       5.72433299     6.38965400     1.68980002    -0.40366952     0.54486298    -0.40374279
O       5.78010399     2.73330501     1.54299598    -0.05482545     0.15074306     0.95669344
O       1.99597398     6.84788202     1.84697899    -3.16406680    -0.35997617    -2.10514574
O       1.96593502     2.91445900     1.69792400    -0.25179105     0.01209910    -0.90390045
