# total energy = -19072.54407881 eV

CRYSTAL
PRIMVEC
        7.60600008     0.00000000     0.00000000
        0.00000000     7.60600008     0.00000000
       -1.89786986    -1.89786986     4.85670466
PRIMCOORD
22 1
Ti      3.36221698     7.03517002     1.18715100     2.83663926    -0.09197225    -0.77911165
Ti      4.06505999     3.12764398     1.13095000     0.50398551    -2.12139358     1.98771519
Ti     -0.19786800     6.44203398     1.00516700    -0.55349855     0.42700846    -0.16320109
Ti      0.28842700     2.56437898     1.31770602    -1.03428165     0.20387159     0.06112980
Ti      5.93096824     2.75837325     3.57443283     0.80260666    -0.61452474    -0.43933047
Ti      5.46967723    -1.20708977     3.70509183    -0.20282978    -0.81257354    -0.81544418
Ti      2.18745222     3.06284924     3.72657981    -1.16914609     0.13405248    -0.62169580
Ti      1.34644823    -0.54514576     3.64789083     0.06810598    -1.30220638     2.71621620
O       3.52077500     4.79892099     0.80282502     0.61496131     2.42607379    -0.26280129
O       4.00863202     1.20907201     0.84593698    -1.92435830    -0.93621408    -0.56131394
O       0.34800299     4.31471402     0.62270901    -0.78814806     0.39267753    -0.36401975
O       6.90989900     0.72491499     0.74914099     1.49687856    -0.19053553     0.52442656
O       5.81145822     4.50319420     3.89707183     0.33393192     2.61400633     1.10522896
O      -0.60207576    -0.38961178     4.00305682     1.60023206     1.13382838     0.01654454
O       1.54985020     5.07710625     4.17392281     0.23828504    -0.51388941    -0.85934398
O       2.06153322     1.13778025     4.04356582     0.76473661    -0.41477129    -0.66280570
O       4.09851225     2.91667720     3.17450183    -1.86468992    -0.25110174     0.87077871
O       0.29991824     2.69236823     3.25482983    -2.22836102    -0.09801229    -0.40726418
O       5.19243201     6.70681998     1.88389900    -0.22042950    -0.81585787     0.29279914
O       5.94453301     2.92711099     1.54279600    -0.26306663     0.56550844     0.20122541
O       1.60294298     6.70892399     1.82595499    -0.65920847     0.46645974    -1.00617871
O       2.04971400     2.82135402     1.81423800     1.64765505    -0.20043402    -0.83355350
