# total energy = -19904.33117473 eV

CRYSTAL
PRIMVEC
        8.27602812     0.00000000     0.00000000
        0.00002912     4.74287518     0.00000000
        0.00000000     0.00000000    12.52093883
PRIMCOORD
24 1
Ti      2.99967951     2.81062359     4.64517917     0.44065819    -0.47520637     2.55987045
Ti      5.27637794     1.93225198     7.87576018    -0.44065819     0.47520637    -2.55987045
Ti      7.13755174     1.93225366     1.61524051     0.43911939     0.47556196    -2.56030265
Ti      1.13850571     2.81062204    10.90569896    -0.43911939    -0.47556196     2.56030265
Ti      2.99966508     0.43918606     1.61529070     0.44038977    -0.47533210    -2.55863143
Ti      5.27639237     4.30368964    10.90564878    -0.44038977     0.47533210     2.55863143
Ti      1.13849127     0.43918419     7.87570999    -0.43951611    -0.47556993    -2.56015018
Ti      7.13756617     4.30369145     4.64522935     0.43951611     0.47556993     2.56015018
O       2.61942549     1.67004706     6.38933945     0.85016566     1.38304807    -2.14400078
O       5.65663195     3.07282845     6.13159990    -0.85016566    -1.38304807     2.14400078
O       1.51865761     1.67006617     0.12891006    -0.85078067     1.38330312    -2.14467878
O       6.75739990     3.07280941    12.39202889     0.85078067    -1.38330312     2.14467878
O       5.65661752     0.70139086     0.12886945    -0.85092413    -1.38353889    -2.14458545
O       2.61943992     4.04148471    12.39206951     0.85092413     1.38353889     2.14458545
O       6.75738547     0.70137175     6.38938006     0.85115322    -1.38366436    -2.14516575
O       1.51867184     4.04150382     6.13155922    -0.85115322     1.38366436     2.14516575
O       0.30070494     2.88488558     3.38221806    -2.30654676     0.75744599     0.22275275
O       7.97535250     1.85798999     9.13872129     2.30654676    -0.75744599    -0.22275275
O       4.43872922     1.85794565     2.87829138    -2.30595206    -0.75792318    -0.22546500
O       3.83732822     2.88492993     9.64264771     2.30595206     0.75792318     0.22546500
O       0.30069051     0.51344792     2.87825142    -2.30688486     0.75771338    -0.22416634
O       7.97536693     4.22942765     9.64268767     2.30688486    -0.75771338     0.22416634
O       3.83731379     0.51349227     9.13876119     2.30586002     0.75707806    -0.22323920
O       4.43874365     4.22938330     3.38217810    -2.30586002    -0.75707806     0.22323920
