# total energy = -4985.17461769 eV

CRYSTAL
PRIMVEC
        2.74308103     0.00000000     0.00000000
        0.85108839     4.21288794     0.00000000
       -0.00000567    -0.00005628     4.31986518
PRIMCOORD
6 1
Ti      1.79708183     2.10641584     2.15993269     0.00000000     0.00000000     0.00000000
Ti      0.00000000     0.00000000     0.00000000     0.00000000     0.00000000     0.00000000
O       1.53740396     0.82101888     0.84187815    -4.04032377     2.01069392     2.23735140
O       2.05675970     3.39181279     3.47798722     4.04032377    -2.01069392    -2.23735140
O       0.25967555     1.28537416     3.00181161     4.04088684    -2.01265182     2.23938026
O       0.59140717     2.92745741     1.31805376    -4.04088684     2.01265182    -2.23938026
