# total energy = -19960.79754046 eV

CRYSTAL
PRIMVEC
        7.60600008     0.00000000     0.00000000
        0.00000000     7.60600008     0.00000000
       -1.89786986    -1.89786986     4.85670466
PRIMCOORD
24 1
Ti      3.74791999     6.64270799     1.07383399     0.96978191     2.74412065     2.14873959
Ti      3.87105599     2.99634002     1.12836999    -0.33576049    -2.40660796     0.49852732
Ti     -0.03250101     6.67905501     1.20437101    -1.16692697     0.59724023     0.86227556
Ti      0.01325002     2.92915600     1.28494000    -0.42496649    -0.93789841    -0.27617823
Ti      5.72160222     2.80350524     3.75152983    -1.27552269    -0.19096619    -0.96087123
Ti      5.71860020    -1.02248475     3.69981482    -1.04471185     0.88501132    -1.22850080
Ti      1.93568524     2.87289123     3.64654381     1.00921750    -0.65699063    -1.00111055
Ti      1.86488820    -0.99114978     3.54954980     1.04547264     0.63964237     1.14938561
O       3.81128299     4.84314502     0.77571199    -0.09994010    -1.31307470    -0.17023717
O       3.83981803     0.96458800     0.61919099    -0.23467264    -0.23788832     0.90195232
O      -0.14424001     4.79273099     0.86324500     0.56106505    -1.43384023    -0.22786359
O      -0.29269101     0.94061097     0.80396201     0.99660135     0.98085617     0.33063730
O       5.75032523     4.74665924     4.14493581    -0.30952417    -0.59913462    -0.24352753
O       5.84372723     0.97792220     4.06646279     0.13196243    -0.84999314     1.24084313
O       2.04126124     4.78135220     3.97783380    -0.29952746    -1.26802947    -0.33109650
O       1.84264524     0.97652221     4.09145980    -0.07991532     0.27168369    -0.42027268
O       3.86204220     2.61853123     3.33444079     0.03764071     0.90167079    -0.33653156
O       3.73711022    -0.98955077     3.06688782     0.44844195     0.27929467     0.89759559
O       0.01210620     2.75374723     3.31067279     0.08632508     0.80465969    -1.27915489
O      -0.08443875    -1.24828177     3.26439280     1.20344359     0.98365815    -0.37826752
O       5.67624501     6.69885999     1.72079901     0.12326876    -0.23841489    -0.52463071
O       5.64468203     3.00473701     1.58318001     1.47308299    -0.17697038     0.82745484
O       1.89056500     6.54991300     1.58864397    -1.25414448     0.70426655    -0.82536839
O       2.00051602     2.81147502     1.71974002    -1.56069079     0.51770467    -0.65379912
