# total energy = -4987.05196742 eV

CRYSTAL
PRIMVEC
        4.15335002     0.00000000     0.00000000
        1.21857810     3.97056467     0.00000000
       -2.68600155    -1.98531004     5.36261519
PRIMCOORD
6 1
Ti      0.91380648     2.97807572     1.34065348     0.00031213    -0.00031213     0.00000000
Ti      1.77211984    -0.99282128     4.02196091    -0.00031213     0.00031213    -0.00000000
O       0.30468797     0.99263566     0.87352605    -0.00060858    -0.00113026    -1.37252043
O       2.38123816     0.99261869     4.48908835     0.00060858     0.00113026     1.37252043
O      -0.30465598    -0.99261202     3.55483347    -0.00113026    -0.00060858    -1.37252043
O       2.99058210     2.97786626     1.80778098     0.00113026     0.00060858     1.37252043
