# total energy = -19951.49072054 eV

CRYSTAL
PRIMVEC
        5.49534287     0.00000000     0.00000000
        1.71602937     5.59129781     0.00000000
        0.00000000     0.00000000     9.95051875
PRIMCOORD
24 1
Ti      3.00871487     3.31339793     3.69157149     0.87082268    -2.39935205     1.01779882
Ti      4.20265728     2.27790001     6.25894732    -0.87082268     2.39935205    -1.01779882
Ti      5.43849075     2.27790193     1.28364816    -1.92657202    -0.53202675     0.62704524
Ti      1.77288148     3.31339622     8.66687076     1.92657202     0.53202675    -0.62704524
Ti      2.15070031     0.51774912     1.28368806     0.87082268    -2.39935205    -1.01779882
Ti      5.06067186     5.07354898     8.66683086    -0.87082268     2.39935205     1.01779882
Ti      0.91486681     0.51774703     6.25890743     1.92657202     0.53202675     0.62704524
Ti      6.29650535     5.07355107     3.69161138    -1.92657202    -0.53202675    -0.62704524
O       2.34355380     1.96879105     5.07767356     1.12378384     1.62186662    -0.82580727
O       4.86781835     3.62250695     4.87284525    -1.12378384    -1.62186662     0.82580727
O       1.61264288     1.96881361     0.10244619     0.01074156    -0.46226292     0.82218150
O       5.59872934     3.62248443     9.84807234    -0.01074156     0.46226292    -0.82218150
O       4.00980377     0.82685797     0.10241390    -1.12378384    -1.62186662    -0.82580727
O       3.20156838     4.76444003     9.84810463     1.12378384     1.62186662     0.82580727
O       4.74071475     0.82683546     5.07770584    -0.01074156     0.46226292     0.82218150
O       2.47065735     4.76446260     4.87281297     0.01074156    -0.46226292    -0.82218150
O       1.24344486     3.40094433     2.68788336     0.25977408     1.00274140     0.90373255
O       5.96792729     2.19035367     7.26263545    -0.25977408    -1.00274140    -0.90373255
O       3.61956787     2.19030153     2.28740769     1.16098823     0.68486526    -0.09716228
O       3.59180428     3.40099646     7.66311095    -1.16098823    -0.68486526     0.09716228
O       0.38543022     0.60529536     2.28737590     0.25977408     1.00274140    -0.90373255
O       6.82594187     4.98600264     7.66314274    -0.25977408    -1.00274140     0.90373255
O       2.73378970     0.60534749     7.26266717    -1.16098823    -0.68486526    -0.09716228
O       4.47758245     4.98595051     2.68785158     1.16098823     0.68486526     0.09716228
