# total energy = -19517.08497110 eV

CRYSTAL
PRIMVEC
        5.17600016     0.00000000     0.00000000
        0.00000000     5.50899976     0.00000000
        0.00000000     0.00000000     9.26300011
PRIMCOORD
23 1
Ti      1.88682001     3.30017698     3.36527298    -0.38764357    -0.50103749     2.08972375
Ti      3.26906702     2.35249001     5.88575401     0.54067826    -0.11968310    -2.78589287
Ti      4.35864700     2.06871998     1.54886302     0.62551055    -1.22548464    -0.47222852
Ti      0.95048299     3.26232599     7.88579202    -1.58831499     1.24863923    -0.82753608
Ti      1.97368699     0.23802700     1.33423598    -0.53364706     0.51920697    -0.51738045
Ti      3.25972800     5.24923400     7.92340700     0.90701714    -0.10781359     0.58864195
Ti      0.67741297     0.60434000     5.90486297    -1.85534524    -0.16022118    -2.80370265
Ti      4.43894600     4.86876302     3.40690801     1.44985127     0.87402499     2.56157020
O       1.63648398     2.19319998     4.76356100    -0.52441628    -2.22424983     1.40579540
O       3.50214600     3.60584098     4.46833201     1.01378841     0.52559873    -0.09274744
O       0.33949599     2.43067002     0.06161698     0.24220649    -0.22321169     0.36162322
O       3.49798900     0.87479402     0.24870902    -0.70194562    -0.63210440    -1.42983754
O       1.67287000     4.75246902     8.95626701     0.11811961     0.36324328     0.76844106
O       4.25465701     0.80450002     4.75434601    -0.02001090    -0.32940703    -0.26013300
O       0.98002097     4.76331599     4.38396898     0.08860153     0.39333522     0.23807447
O       0.23471101     3.16641701     2.58217802    -0.99683609     1.28766885    -0.39889086
O       4.97086698     2.22877599     6.67768698     0.48832235    -0.72248591     0.83405563
O       2.68230502     1.69323898     2.36804798    -0.19776419     0.64121408     0.14142332
O       2.54828602     3.72649800     6.94455302     0.25289509    -0.97903094     0.54307530
O       0.17504601     0.60043001     2.21206103     0.45690680    -0.16845231    -1.44298822
O       4.98574099     4.74758302     7.06273799     0.19513935     0.76556451     1.07296828
O       2.43175102     0.80144000     6.74290400    -0.33921091     0.50922722     0.64162392
O       2.93349102     4.38055298     2.11047101     0.76609827     0.26545879    -0.21567887
