# total energy = -4987.35439107 eV

CRYSTAL
PRIMVEC
        3.89822492     0.00000000     0.00000000
        1.66966665     3.52255175     0.00000000
       -2.78398269    -1.76129922     5.11248248
PRIMCOORD
6 1
Ti      1.25215151     2.64204939     1.27812057     0.00025582    -0.00025582     0.00000000
Ti      1.53175763    -0.88079665     3.83436160    -0.00025582     0.00025582     0.00000000
O       0.41745715     0.88063331     0.83278156    -0.00028436    -0.00038361    -2.16607654
O       2.36645185     0.88061929     4.27970066     0.00028436     0.00038361     2.16607654
O      -0.41742203    -0.88061113     3.38902264    -0.00038361    -0.00028436    -2.16607654
O       3.20133097     2.64186370     1.72345958     0.00038361     0.00028436     2.16607654
