# total energy = -19945.14289790 eV

CRYSTAL
PRIMVEC
        5.82272157     0.00000000     0.00000000
        0.00003191     6.19713657     0.00000000
        0.00000000     0.00000000    10.42139127
PRIMCOORD
24 1
Ti      2.11047542     3.67241740     3.86626191     0.02899254    -0.72334055     0.56684927
Ti      3.71227806     2.52471923     6.55512966    -0.02899254     0.72334055    -0.56684927
Ti      5.02173427     2.52472136     1.34439223     0.03097332     0.72333129    -0.56689940
Ti      0.80101921     3.67241550     9.07699945    -0.03097332    -0.72333129     0.56689940
Ti      2.11045959     0.57384923     1.34443403     0.02899254    -0.72334055    -0.56684927
Ti      3.71229389     5.62328757     9.07695766    -0.02899254     0.72334055     0.56684927
Ti      0.80100337     0.57384692     6.55508787    -0.03097332    -0.72333129    -0.56689940
Ti      5.02175011     5.62328988     3.86630370     0.03097332     0.72333129     0.56689940
O       1.84293938     2.18211719     5.31795630     1.19271334     1.08792928     0.04472564
O       3.97981411     4.01501949     5.10343526    -1.19271334    -1.08792928    -0.04472564
O       1.06847793     2.18214215     0.10729407    -1.19200192     1.08769763     0.04408801
O       4.75427561     4.01499453    10.31409720     1.19200192    -1.08769763    -0.04408801
O       3.97979827     0.91645115     0.10726025    -1.19271334    -1.08792928     0.04472564
O       1.84295521     5.28068547    10.31413101     1.19271334     1.08792928    -0.04472564
O       4.75425978     0.91642619     5.31799012     1.19200192    -1.08769763     0.04408801
O       1.06849365     5.28071049     5.10340145    -1.19200192     1.08769763    -0.04408801
O       0.21157233     3.76944977     2.81507784     0.41748714    -0.24522805     0.28549951
O       5.61118115     2.42768686     7.60631373    -0.41748714     0.24522805    -0.28549951
O       3.12293778     2.42762910     2.39565108     0.41764655     0.24550213    -0.28566766
O       2.69981570     3.76950753     8.02574031    -0.41764655    -0.24550213     0.28566766
O       0.21155649     0.67088143     2.39561780     0.41748714    -0.24522805    -0.28549951
O       5.61119699     5.52625520     8.02577359    -0.41748714     0.24522805     0.28549951
O       2.69979986     0.67093918     7.60634695    -0.41764655    -0.24550213    -0.28566766
O       3.12295362     5.52619744     2.81504456     0.41764655     0.24550213     0.28566766
