# total energy = -4975.88660737 eV

CRYSTAL
PRIMVEC
        4.92507693     0.00000000     0.00000000
       -0.00001096     4.92507693     0.00000000
       -2.46257709    -2.46258257     6.28549352
PRIMCOORD
6 1
Ti     -0.00021689     3.69399424     1.57137321    -0.00207977     0.00207977     0.00000000
Ti      2.46270563    -1.23150002     4.71411990     0.00207977    -0.00207977     0.00000000
O       0.00004920     1.23126087     1.02385546    -0.00021057    -0.00236799    -1.31089055
O       2.46243941     1.23123322     5.26163771     0.00021057     0.00236799     1.31089055
O      -0.00002782    -1.23123949     4.16660216    -0.00236799    -0.00021057    -1.31089055
O       2.46251635     3.69373350     2.11889102     0.00236799     0.00021057     1.31089055
