# total energy = -19918.12855326 eV

CRYSTAL
PRIMVEC
        7.26158070     0.00000000     0.00000000
        0.00003068     5.71238277     0.00000000
        0.00000000     0.00000000    11.56155512
PRIMCOORD
24 1
Ti      2.63199194     3.38515279     4.28925449     0.49890964    -0.75572386     1.14698369
Ti      4.62961950     2.32723018     7.27230070    -0.49890964     0.75572386    -1.14698369
Ti      6.26265688     2.32723217     1.49147691     0.49814679     0.75604628    -1.14757530
Ti      0.99895456     3.38515106    10.07007840    -0.49814679    -0.75604628     1.14757530
Ti      2.63197673     0.52896153     1.49152326     0.49890964    -0.75572386    -1.14698369
Ti      4.62963471     5.18342163    10.07003205    -0.49890964     0.75572386     1.14698369
Ti      0.99893935     0.52895935     7.27225434    -0.49814679    -0.75604628    -1.14757530
Ti      6.26267209     5.18342381     4.28930084     0.49814679     0.75604628     1.14757530
O       2.29834698     2.01142712     5.89977309     0.82097437     1.42068543    -1.19440282
O       4.96326453     3.70095585     5.66178210    -0.82097437    -1.42068543     1.19440282
O       1.33250750     2.01145016     0.11903271    -0.82065710     1.42042935    -1.19459205
O       5.92910407     3.70093287    11.44252215     0.82065710    -1.42042935     1.19459205
O       4.96324931     0.84476440     0.11899520    -0.82097437    -1.42068543    -1.19440282
O       2.29836219     4.86761857    11.44255966     0.82097437     1.42068543     1.19440282
O       5.92908886     0.84474142     5.89981060     0.82065710    -1.42042935    -1.19459205
O       1.33252258     4.86764161     5.66174459    -0.82065710     1.42042935     1.19459205
O       0.26384870     3.47459501     3.12306448    -1.39633425     0.29401501     0.04637346
O       6.99776281     2.23778795     8.43849071     1.39633425    -0.29401501    -0.04637346
O       3.89464687     2.23773468     2.65774988    -1.39582774    -0.29379621    -0.04644288
O       3.36696463     3.47464835     8.90380511     1.39582774     0.29379621     0.04644288
O       0.26383349     0.61840363     2.65771296    -1.39633425     0.29401501    -0.04637346
O       6.99777802     5.09397940     8.90384204     1.39633425    -0.29401501     0.04637346
O       3.36694942     0.61845690     8.43852757     1.39582774     0.29379621    -0.04644288
O       3.89466208     5.09392606     3.12302755    -1.39582774    -0.29379621     0.04644288
