# total energy = -19517.87976700 eV

CRYSTAL
PRIMVEC
        5.17600016     0.00000000     0.00000000
        0.00000000     5.50899976     0.00000000
        0.00000000     0.00000000     9.26300011
PRIMCOORD
23 1
Ti      1.85755301     3.22614498     3.40607101    -0.22892880     0.15236106     2.01311847
Ti      3.43120699     2.22621302     5.83328101     0.99822680     0.14361725    -1.61916490
Ti      4.22754202     2.19011800     1.48635200     1.52534274    -0.95640317    -1.49301599
Ti      0.87376700     3.40340100     7.79077798    -2.72485588     0.98582842     1.10097995
Ti      1.90160702     0.18389698     1.40767499     0.47069460     0.33984828    -0.78937241
Ti      3.28916898     5.11840498     7.93254102     0.15038414     0.53556099     1.77516947
Ti      0.83305099     0.58364102     5.85991302    -1.03478173    -0.57308728    -1.93552718
Ti      4.47941398     4.89417798     3.41535199     0.10817561     1.26922426     1.72481260
O       1.79991699     1.95371500     4.85854101    -0.89891431     0.36587017    -1.02104252
O       3.60672899     3.57248001     4.53129600    -0.43083426     0.49946706    -0.25173783
O       4.90353198     3.08850201     0.02858298    -0.33975958    -0.44181519    -0.28587927
O       3.66926700     0.69625899     0.23835397    -0.98240757     0.03445999    -0.45757194
O       1.65712401     4.78678902     9.10195501     0.08230670    -0.42444301    -1.14527262
O       4.28595699     0.83157199     4.79512600    -0.29816375     0.01086780    -0.58145391
O       0.95475800     4.90248902     4.37049200     1.51794799    -1.55003897     0.02588253
O       0.14623999     3.40899599     2.57993902     0.87138884    -1.27665167    -0.41209091
O       5.15883201     1.99187302     6.77362401    -0.18217970     1.07604332     1.19001266
O       2.49383002     1.87634500     2.20323101     0.06427040     0.00296551    -0.33931864
O       2.58350101     3.44784098     7.10406901     0.62089388    -0.16880353     0.48973517
O       0.18269897     0.63217102     2.10594897    -0.34405975     0.68344035    -0.29371034
O       4.95249400     4.75031098     6.98198602     0.70100897    -0.25882380     0.65037338
O       2.48844898     0.80024200     6.82407000     0.07755144    -0.65463576     1.09894595
O       2.90360901     4.38341901     2.20862502     0.27669323     0.20514763     0.55612879
