# total energy = -19959.92632843 eV

CRYSTAL
PRIMVEC
        7.60600008     0.00000000     0.00000000
        0.00000000     7.60600008     0.00000000
       -1.89786986    -1.89786986     4.85670466
PRIMCOORD
24 1
Ti      3.83107200     6.84460599     1.09406100     2.15892347    -1.74711410    -0.17845597
Ti      3.80670301     2.78149898     1.13904699    -1.41954283     1.65318961     0.96175286
Ti      0.00259699     6.60606897     1.23500498    -2.07768995     0.64797814    -0.79878806
Ti     -0.17425299     2.75882500     1.39110698     0.70675153     0.05557416    -1.80064603
Ti      5.59576525     2.78883623     3.78685982     0.26860710    -0.14615081    -0.51333765
Ti      5.66773225    -0.94106877     3.60516184     1.18360469     0.04198947     0.84282901
Ti      1.99767725     2.82638623     3.70805982     0.02711744    -0.12771060    -0.75143372
Ti      2.08563820    -0.94767179     3.47343083    -1.37719906     0.16009777     1.24944501
O       4.04847701     4.76386300     0.87277802    -1.28973704     0.81952272    -1.15668678
O       4.11201701     0.99991201     0.59952798    -0.94282542    -0.77259622     0.72089260
O       7.25436799     4.67390700     0.81988702     1.05888815     1.48159412     0.83951203
O      -0.06638698     0.98901000     0.70309500     0.07928282    -1.38573899     1.40106637
O       5.42629423     4.75820022     4.01870883     0.93079600    -0.26415215     0.77747566
O       5.82347721     0.92416520     4.20715684    -0.19847895     0.61207293    -1.00641371
O       2.23130323     4.81827121     3.90809983    -1.33467146    -0.61418021     0.94164091
O       1.77933220     0.94084625     4.04452982    -0.12470292     0.11131492    -0.03953304
O       3.79490125     2.62388724     3.26219682    -0.88913743    -0.16217188     0.17730231
O       3.84506921    -0.83261077     3.12088781    -0.43020922     0.64856821    -0.63548849
O      -0.09084878     2.90656023     3.18979982     0.48504393     0.22837267     2.07995869
O      -0.12660777    -0.99537077     3.11255179     2.37118509    -0.61982353     0.70107813
O       5.74125502     6.94406401     1.65308602    -1.40670325    -0.58468245    -0.85525850
O       5.52766300     2.89741801     1.76807401     1.61226611    -0.72423915    -0.65217727
O       1.92779701     6.71587500     1.62255402     0.16134810     0.10542375    -1.83878579
O       1.89133199     2.67101698     1.74804402     0.44708312     0.58286159    -0.46594937
