# total energy = -4983.84789342 eV

CRYSTAL
PRIMVEC
        4.88324253     0.00000000     0.00000000
       -0.00000793     3.25549464     0.00000000
       -2.44165004    -1.62779700     5.40981209
PRIMCOORD
6 1
Ti     -0.00020987     2.44173925     1.35245274    -0.00488073    -0.00822702     8.25422020
Ti      2.44179449    -0.81404194     4.05735861     0.00488073     0.00822702    -8.25422020
O       0.00005139     0.81386482     0.88121405     0.00215176     0.00176095    -3.14596623
O       2.44153312     0.81383243     4.52859736    -0.00215176    -0.00176095     3.14596623
O      -0.00002093    -0.81386782     3.58611998    -0.00234382    -0.00016995    -2.18696342
O       2.44160537     2.44156501     1.82369148     0.00234382     0.00016995     2.18696342
