# total energy = -19071.93421360 eV

CRYSTAL
PRIMVEC
        5.17600016     0.00000000     0.00000000
        0.00000000     5.50899976     0.00000000
        0.00000000     0.00000000     9.26300011
PRIMCOORD
22 1
Ti      1.75249101     3.51734699     3.15914400    -1.85573888     0.37070539     2.34483641
Ti      3.72898598     2.42233802     5.83199902     0.64080553    -0.74830340     2.02903566
Ti      4.24397302     2.20812802     1.45124702     2.04601498    -1.20112548     0.30193298
Ti      1.32146900     2.55712698     7.72583698    -1.89702901     0.50772004     0.86505364
Ti      1.72556398     0.78880600     1.30521198    -0.98494808    -0.56816387    -0.23823285
Ti      3.19290799     0.05652100     7.98814200     1.16636158    -2.24230464     1.18808973
Ti      0.68766700     5.26480102     6.48987700    -0.48703808    -0.94542815     0.18683468
Ti      4.37940700     5.08698800     3.55360198    -0.46840632     1.33792699     1.49294914
O       3.32195601     3.41874100     4.45438602    -0.38708692     1.05014279    -1.63896317
O       0.98733600     2.12546699     0.32094198    -0.60855000     1.16016471    -0.91919800
O       5.04069202     3.49353401     7.01741501    -1.01433708     0.55293497    -1.73272440
O       3.49092501     0.66559401     0.51476299     0.71508602     0.21921851    -1.63319310
O       1.35642301     4.91879202     8.18662702     0.75330420    -0.31986566     3.52542546
O       3.95180701     0.77896902     5.00813302     0.23674984    -0.27737945    -1.07969429
O       0.71470499     4.79502598     4.61331800     1.30898484    -1.52809382    -0.13657294
O       5.01803302     3.74081701     2.40652202     1.04422514    -1.37141382    -1.02550005
O       4.96224203     1.10377198     7.40784501    -0.78488378     0.44215586    -0.63867537
O       2.58750398     2.07828899     2.37501100     0.40628150     0.19799944     0.52651327
O       2.50130402     3.61872602     6.79193502     1.24665819    -0.08267334    -0.55011446
O       0.14591301     0.89275700     2.53345101    -0.51403622     0.52683877    -0.76193359
O       2.37367398     1.10928802     6.81834901    -1.47624596     2.16568290    -1.63755524
O       2.51822600     4.87266401     2.44787500     0.91382748     0.75326074    -0.46831402
