# total energy = -19960.19799722 eV

CRYSTAL
PRIMVEC
        7.60600008     0.00000000     0.00000000
        0.00000000     7.60600008     0.00000000
       -1.89786986    -1.89786986     4.85670466
PRIMCOORD
24 1
Ti      3.62862799     6.77131198     1.31896800     1.23141875    -1.56983621     0.25052041
Ti      3.80537398     2.97979201     1.25829502     0.18686733     1.01893910    -1.26865502
Ti      0.11745602     6.55439799     1.20084902    -2.73589646    -0.81488548    -1.42871782
Ti      0.06954998     2.70651499     1.04714102    -0.54851241     1.01761601     1.60103013
Ti      5.76234522     2.74121822     3.54054882     0.45825920     0.43794748     0.87733477
Ti      5.68704325    -1.11239276     3.53063780    -0.25569939    -0.24220392    -0.24579010
Ti      1.95800324     3.02860020     3.60542081    -0.48564840    -1.74997111     1.32767960
Ti      1.77570723    -0.91860376     3.74598283     0.59944393     1.36351745     0.16831116
O       3.57334802     4.84099101     0.96442501     0.92522596     0.03220899    -1.10365184
O       3.74860099     1.00169798     0.98736500    -0.39416363    -0.20700062    -1.33251250
O       0.22431702     4.58677299     0.78162401    -0.58972104     0.59908783    -0.60140696
O       0.20556001     0.77877502     0.79109702    -0.33346706     2.01644882    -0.50678133
O       5.72890323     4.69330224     3.97847781     0.06203303    -0.15833476     0.58255383
O       5.59721424     0.84015122     3.99789380    -0.03741831    -0.07515363     0.27869714
O       1.74176221     4.79924025     4.14476181     0.11697032     0.98641026     0.10912923
O       2.00384020     1.03295521     4.07986780    -0.39650282    -0.32375780     0.31012272
O       3.90571223     3.02170725     3.16236679    -1.72472801    -0.10910069     1.90602633
O       3.66710420    -1.01642779     3.22546779     0.87176987     0.14074070     0.40035793
O      -0.03205777     2.91288321     3.16272981     0.70926221    -0.64813730    -0.21091281
O      -0.03859575    -0.76277778     3.11064781     1.01706605    -0.35353736     1.98201120
O       5.81586102     6.46854898     1.66626401    -1.87648743     0.18852878    -0.52813538
O       5.62424001     2.82016400     1.64331698     2.61014813    -0.37267794    -1.36412963
O       1.81139802     6.65706600     1.71004798     2.00156419    -0.01363765     0.44403354
O       1.96263899     3.02416199     1.79779001    -1.41178478    -1.16321070    -1.64711460
