# total energy = -4987.95492740 eV

CRYSTAL
PRIMVEC
        4.12788497     0.00000000     0.00000000
        0.81739438     4.04614641     0.00000000
       -2.47267728    -2.02310397     5.29490481
PRIMCOORD
6 1
Ti      0.61290349     3.03476454     1.32372634    -0.00007688     0.00007688     0.00000000
Ti      1.85969858    -1.01172210     3.97117863     0.00007688    -0.00007688     0.00000000
O       0.20439185     1.01153069     0.86249679    -0.00052682    -0.00144033    -1.10575526
O       2.26821010     1.01151165     4.43240825     0.00052682     0.00144033     1.10575526
O      -0.20436475    -1.01150852     3.50994908    -0.00144033    -0.00052682    -1.10575526
O       2.67696658     3.03455075     1.78495590     0.00144033     0.00052682     1.10575526
