# total energy = -19918.30583564 eV

CRYSTAL
PRIMVEC
        6.33965707     0.00000000     0.00000000
        2.89001347     6.09705189     0.00000000
        0.00000000     0.00000000    11.66012757
PRIMCOORD
24 1
Ti      4.01044001     3.61310727     4.32582414     0.15048004    -2.49726072     0.57185032
Ti      5.21923031     2.48394454     7.33430350    -0.15048004     2.49726072    -0.57185032
Ti      6.64493972     2.48394660     1.50419311    -0.85886705    -1.23866232     0.44673114
Ti      2.58473072     3.61310544    10.15593472     0.85886705     1.23866232    -0.44673114
Ti      2.56543343     0.56458142     1.50423984     0.15048004    -2.49726072    -0.57185032
Ti      6.66423694     5.53247057    10.15588799    -0.15048004     2.49726072     0.57185032
Ti      1.13972398     0.56457917     7.33425677     0.85886705     1.23866232     0.44673114
Ti      8.08994644     5.53247281     4.32587093    -0.85886705    -1.23866232    -0.44673114
O       3.02416430     2.14687559     5.95007385     1.80760961     2.09759518    -0.92403965
O       6.20550603     3.95017622     5.71005385    -1.80760961    -2.09759518     0.92403965
O       2.18095862     2.14690022     0.12004757     0.10605445    -1.07049257     1.70730209
O       7.04871179     3.95015170    11.54007982    -0.10605445     1.07049257    -1.70730209
O       4.76049942     0.90165024     0.12000969    -1.80760961    -2.09759518    -0.92403965
O       4.46917092     5.19540163    11.54011763     1.80760961     2.09759518     0.92403965
O       5.60370517     0.90162566     5.95011167    -0.10605445     1.07049257     1.70730209
O       3.62596510     5.19542622     5.71001597     0.10605445    -1.07049257    -1.70730209
O       1.98820437     3.70857262     3.14969136     0.66310241     2.93513569     2.74852650
O       7.24146589     2.38847920     8.51043634    -0.66310241    -2.93513569    -2.74852650
O       4.53229193     2.38842246     2.68040955     0.73483364     2.05912529     1.63950928
O       4.69737840     3.70862935     8.97971790    -0.73483364    -2.05912529    -1.63950928
O       0.54319775     0.66004659     2.68037230     0.66310241     2.93513569    -2.74852650
O       8.68647251     5.43700524     8.97975515    -0.66310241    -2.93513569     2.74852650
O       3.25237177     0.66010331     8.51047346    -0.73483364    -2.05912529     1.63950928
O       5.97729855     5.43694850     3.14965411     0.73483364     2.05912529    -1.63950928
