# total energy = -4983.29062226 eV

CRYSTAL
PRIMVEC
        4.17680742     0.00000000     0.00000000
       -0.00000716     3.08720566     0.00000000
       -2.08842927    -1.54364321     4.74194214
PRIMCOORD
6 1
Ti     -0.00018038     2.31551793     1.18548526    -0.00473957    -0.01128098    11.49851213
Ti      2.08855116    -0.77195548     3.55645617     0.00473957     0.01128098   -11.49851213
O       0.00004357     0.77179411     0.77242349     0.00385948     0.00603104    -4.03197693
O       2.08832707     0.77176829     3.96951794    -0.00385948    -0.00603104     4.03197693
O      -0.00001870    -0.77179114     3.14339441    -0.00139894    -0.00032267     0.23074117
O       2.08838928     2.31535344     1.59854707     0.00139894     0.00032267    -0.23074117
