# total energy = -19960.62248819 eV

CRYSTAL
PRIMVEC
        5.93400000     0.00000000     0.00000000
        0.00000000     9.29699974     0.00000000
        0.00000000     0.00000000     4.64899994
PRIMCOORD
24 1
Ti      4.43993000     6.94737502     2.30751598     0.94321674     0.70144657    -0.12006156
Ti      4.41202299     2.24997398     2.38543902    -0.52453301     0.41193870    -0.92805057
Ti      1.54629000     6.90618402     2.34107698    -1.04768122     0.82305491    -0.32988834
Ti      1.38785301     2.33988998     2.26173902     0.50867367     0.30702017    -0.71826416
Ti      2.99932802     4.64452300     0.00990101    -0.82045115    -0.42328447     0.76735862
Ti      2.99956298     0.06201000     4.61514303    -1.37158017    -0.55002422     0.24532370
Ti      0.00200098     4.59892999     4.56662700     1.11359533     0.24416336     0.55401020
Ti      5.91996601     9.28153200     0.03619900     1.25995877    -0.77862777     0.12187625
O       4.44995098     5.52220199     0.95047198     0.11198110     0.26667440     0.16453884
O       4.46029401     0.98324800     0.89839300    -0.31660499    -0.53156703    -0.00642133
O       1.51208198     5.41814500     0.95872699    -0.08372672     1.06555348     0.37731956
O       1.55414098     0.98814898     0.92658698    -0.43512080    -0.89056105    -0.63885150
O       4.38620999     8.34562901     3.75421498     0.49673706     1.23532142     0.92704013
O       4.51452701     3.88610299     3.63647500    -0.69154345    -1.03308069    -0.61044722
O       1.43598602     8.45143398     3.79817299     0.55954270    -0.04662646     0.32368298
O       1.50129099     3.75406401     3.67600099    -0.16719633     0.68873194     0.11523174
O       2.94987403     6.17441999     3.33784901     0.39751506    -0.60638591    -0.18756590
O       2.88828700     1.46140801     3.15664803     1.47070652    -0.52830970     0.95202380
O       0.01799499     6.24279498     3.33214802    -0.21543590    -1.27302949     0.07048399
O       0.12497801     1.38195099     3.29849298    -1.70299138     0.83906106    -0.73707873
O       2.91820901     8.01207298     1.53190601     0.51290982    -0.92268159    -0.43368484
O       2.94995600     3.22461301     1.38182103     1.00792603     0.12880152    -0.04010151
O       0.04890598     7.92605199     1.53001399    -0.72385940     0.12741081    -0.90442341
O       5.89912802     3.07730102     1.21412100    -0.28203855     0.74499953     1.03594953
