# total energy = -19929.43851888 eV

CRYSTAL
PRIMVEC
        6.00193102     0.00000000     0.00000000
        3.00608186     5.63634245     0.00000000
        0.00000000     0.00000000    11.11615092
PRIMCOORD
24 1
Ti      3.95681267     3.34009132     4.12401273     0.95102390    -3.14107059     0.64001981
Ti      5.05120036     2.29625128     6.99213831    -0.95102390     3.14107059    -0.64001981
Ti      6.40095960     2.29625328     1.43401838    -2.42088170    -1.00116377     0.85222177
Ti      2.60705363     3.34008958     9.68213272     2.42088170     1.00116377    -0.85222177
Ti      2.45377197     0.52192028     1.43406297     0.95102390    -3.14107059    -0.64001981
Ti      6.55424118     5.11442253     9.68208819    -0.95102390     3.14107059     0.64001981
Ti      1.10401264     0.52191812     6.99209372     2.42088170     1.00116377     0.85222177
Ti      7.90400050     5.11442464     4.12405726    -2.42088170    -1.00116377    -0.85222177
O       2.95814164     1.98465204     5.67248675     1.63354766     2.04541745    -1.14057624
O       6.04987146     3.65169061     5.44366429    -1.63354766    -2.04541745     1.14057624
O       2.15985624     1.98467473     0.11444701     0.74351523    -1.29425884     1.52014705
O       6.84815694     3.65166796    11.00170367    -0.74351523     1.29425884    -1.52014705
O       4.54683065     0.83351935     0.11441093    -1.63354766    -2.04541745    -1.14057624
O       4.46118244     4.80282324    11.00173975     1.63354766     2.04541745     1.14057624
O       5.34511613     0.83349670     5.67252277    -0.74351523     1.29425884     1.52014705
O       3.66289692     4.80284595     5.44362821     0.74351523    -1.29425884    -1.52014705
O       2.04653340     3.42834295     3.00274969     0.68274847     2.71631056     2.54501692
O       6.96147970     2.20799969     8.11340129    -0.68274847    -2.71631056    -2.54501692
O       4.39662606     2.20794705     2.55536113     0.98519516     1.68827361     1.30937797
O       4.61138705     3.42839559     8.56078967    -0.98519516    -1.68827361    -1.30937797
O       0.54349259     0.61017169     2.55532565     0.68274847     2.71631056    -2.54501692
O       8.46452050     5.02617089     8.56082515    -0.68274847    -2.71631056     2.54501692
O       3.10834623     0.61022434     8.11343671    -0.98519516    -1.68827361     1.30937797
O       5.89966686     5.02611825     3.00271421     0.98519516     1.68827361    -1.30937797
