# total energy = -78964.85566634 eV

CRYSTAL
PRIMVEC
       10.35150501     0.00002646     0.00000000
        0.00002858    11.01713167     0.00000000
        0.00000000     0.00000000     9.26345890
PRIMCOORD
94 1
Ti      7.17931357     8.68622333     3.27733941     0.02164844    -0.00949329    -0.02482838
Ti      7.08128552     3.32307567     3.45204966    -0.01147021    -0.00045046     0.05372862
Ti      1.79808621     8.77473263     3.47735969     0.00495915    -0.01053227    -0.02789031
Ti      1.83076276     3.40878102     3.49174825     0.01139333    -0.02697165     0.00761690
Ti      8.36612948     7.68380657     5.74146827     0.00895567    -0.01842170     0.01826692
Ti      8.52295691     2.19252469     5.81961585     0.07543285     0.01809517     0.04801743
Ti      3.34309732     7.63686605     5.79830368     0.01149515     0.02988394    -0.00282539
Ti      3.19018851     2.23712043     5.81518939    -0.01849421     0.01397626     0.07038526
Ti      9.74878010     7.68377680     1.10954595    -0.00856923    -0.01812551     0.01849755
Ti      9.59251749     2.19268426     1.18787550    -0.07446329     0.01792317     0.04861161
Ti      4.42078940     7.63649509     1.16671580    -0.01073282     0.03029841    -0.00211396
Ti      4.57322149     2.23728820     1.18342540     0.01845204     0.01400840     0.07088354
Ti      5.96538177     8.77471165     8.10913129    -0.00362834    -0.01186127    -0.02779646
Ti      5.93279884     3.40890032     8.12350339    -0.01179494    -0.02659242     0.00735644
Ti      0.58453058     8.68621136     7.90900272    -0.02230459    -0.00975271    -0.02458413
Ti      0.68266736     3.32317587     8.08393936     0.00987227    -0.00017304     0.05396002
Ti      7.04374249     6.05770746     1.17795966    -0.00685713    -0.04480175     0.01630723
Ti      7.02776101     0.53991773     1.21066753    -0.02872797    -0.00682268    -0.05482777
Ti      1.89326414     6.04215183     1.22663469     0.01064000    -0.01502965    -0.01964632
Ti      1.91347137     0.86081746     1.33677010     0.00732559     0.01270614     0.04748392
Ti      8.47051915    10.49361182     8.07293401    -0.00925340    -0.00867619     0.01020883
Ti      8.51310536     4.95370958     8.05273924    -0.05458505     0.05396928     0.01066751
Ti      3.50366011    10.41922258     7.93871238    -0.04322283    -0.01171241    -0.00780741
Ti      3.28634915     4.93537195     8.08795699    -0.01797536     0.01864436    -0.03506060
Ti      5.87042017     6.04196554     5.85820704    -0.01170264    -0.01458176    -0.01995254
Ti      5.84998223     0.86107811     5.96843549    -0.00798225     0.01297636     0.04722090
Ti      0.72010816     6.05775357     5.80974071     0.00663679    -0.04447496     0.01590048
Ti      0.73604592     0.53995472     5.84261655     0.02915555    -0.00696589    -0.05525483
Ti      9.64491151    10.49359619     3.44137950     0.00869676    -0.00950846     0.00915287
Ti      9.60207195     4.95396554     3.42115186     0.05332727     0.05384792     0.01093491
Ti      4.26090876    10.41930469     3.30673240     0.04140943    -0.01155454    -0.00797839
Ti      4.47712769     4.93523849     3.45621548     0.01740946     0.01875081    -0.03435766
O       6.75620189     7.47170170     4.71888701     0.06594676     0.01447712     0.01135760
O       6.84651368     1.91020163     4.71004658     0.00567777     0.01772236    -0.03607516
O       1.59889309     7.43939082     4.75466264     0.04477809     0.00473932     0.01470929
O       1.67390162     1.88525034     4.69063754     0.00341237     0.00134032    -0.01124344
O       8.60626421     9.12607431     4.54626184     0.03857042     0.00559009     0.03498013
O       8.71990189     3.58406743     4.53082034     0.00221886    -0.01811369    -0.00333909
O       3.49485199     9.10812627     4.55387597    -0.02446354     0.00538723    -0.02326309
O       3.56717656     3.55523194     4.52139073     0.00916830    -0.02316128    -0.00673578
O       6.16469028     7.43933871     0.12299926    -0.04460814     0.00503602     0.01431205
O       6.08953773     1.88530581     0.05890663    -0.00354607     0.00113669    -0.01066263
O       1.00728720     7.47167285     0.08716151    -0.06520886     0.01423518     0.01062226
O       0.91702496     1.91005443     0.07829525    -0.00547080     0.01758867    -0.03609085
O       9.50890360     9.12609092     9.17790375    -0.03867301     0.00570271     0.03456104
O       9.39522773     3.58402337     9.16249890    -0.00260736    -0.01816048    -0.00328973
O       4.26889450     9.10825578     9.18551081     0.02525673     0.00521214    -0.02312708
O       4.19626984     3.55535172     9.15317106    -0.00874047    -0.02364053    -0.00632492
O       8.72751962     6.34266370     0.06926052     0.00561478    -0.01190601     0.01067857
O       8.69876344     0.83292414     0.09868922    -0.03142095     0.01432259     0.00820234
O       3.57020971     6.34654341     0.09213619     0.02210070    -0.01318154    -0.00579424
O       3.29364061     0.64577861     0.07088906    -0.02317670    -0.09167914     0.00613517
O       6.85980901    10.16204427     9.19354902     0.01156457    -0.02012095    -0.00813703
O       6.81422306     4.67652453     9.20352671    -0.04590655    -0.03730286    -0.02475228
O       1.65363421     4.68061162     9.16231272    -0.01558860     0.06039575     0.01191578
O       9.38759062     6.34267475     4.70107285    -0.00610329    -0.01151083     0.01066520
O       9.41630272     0.83293032     4.73046649     0.03171971     0.01440024     0.00798508
O       4.19332183     6.34650067     4.72384237    -0.02191429    -0.01333632    -0.00516149
O       4.46992787     0.64577579     4.70269146     0.02363667    -0.09200079     0.00565386
O       6.10982736     4.68063818     4.53054114     0.01648052     0.05987304     0.01225491
O       0.90384591    10.16203627     4.56180611    -0.01104855    -0.02022430    -0.00790460
O       0.94935950     4.67650025     4.57174367     0.04572143    -0.03648191    -0.02412698
O       5.41157435     9.01050311     2.69575845     0.02715086    -0.05118374    -0.02841790
O       5.37213482     3.36707945     2.45350388     0.06502965     0.02073390    -0.01322525
O       0.15840719     8.84433070     2.50975564    -0.02259718     0.02195389    -0.00643367
O       0.20111425     3.35373751     2.49677725    -0.00980208    -0.00294391     0.01298022
O      10.10528761     7.59556975     6.75554602    -0.01181062     0.05347819     0.00344785
O      10.19175207     2.14582317     6.76439831    -0.01715209     0.01517363     0.03472096
O       4.96561551     7.64991057     6.79096155    -0.01344482     0.00972957     0.00482751
O       4.95462417     2.19762169     6.78482863    -0.03523930    -0.06046903    -0.03144872
O       8.00986690     7.59551037     2.12385717     0.01224848     0.05324114     0.00305113
O       7.92344507     2.14590614     2.13259965     0.01692995     0.01509701     0.03487034
O       2.79801587     7.64991401     2.15916568     0.01351475     0.00970206     0.00483882
O       2.80881964     2.19755728     2.15305069     0.03520587    -0.06113494    -0.03210332
O       7.60523041     8.84435615     7.14157885     0.02307926     0.02193435    -0.00681780
O       7.56244012     3.35375897     7.12851296     0.00947349    -0.00260684     0.01352272
O       2.35224436     9.01068603     7.32754986    -0.02663792    -0.05074331    -0.02826723
O       2.39142895     3.36703252     7.08516292    -0.06527725     0.02196494    -0.01232484
O       5.39120478     6.17671717     2.16848077     0.01644273    -0.03314796     0.00649821
O       5.31685955     0.58429336     2.09014831    -0.02108511    -0.01572127    -0.02786306
O       0.22552194     6.09018451     2.11803892     0.02547193     0.04055531     0.01302290
O       0.15640035     0.58859344     2.12557252     0.03764482    -0.01452160     0.00052399
O      10.23672099    10.42089007     7.20481911     0.06185279    -0.00276419    -0.01766143
O      10.14450353     4.90197504     7.12029305     0.04891320    -0.01844716    -0.00762255
O       5.10668599    10.37996891     7.05725215    -0.02225111     0.10682629    -0.01101847
O       4.97742135     4.88886509     7.12426710    -0.00444390     0.02820553    -0.02169832
O       7.53795503     6.09021375     6.74978723    -0.02470291     0.04040130     0.01337668
O       7.60725839     0.58873882     6.75726326    -0.03771835    -0.01475737     0.00057901
O       2.37238849     6.17673490     6.80020505    -0.01645018    -0.03309268     0.00666559
O       2.44678377     0.58434291     6.72186543     0.02136690    -0.01660548    -0.02769593
O       7.87857790    10.42087724     2.57305297    -0.06236239    -0.00286241    -0.01777739
O       7.97063375     4.90200438     2.48859147    -0.04883555    -0.01847698    -0.00738755
O       2.65745241    10.38004615     2.42582194     0.02216240     0.10689751    -0.01156663
O       2.78605772     4.88876738     2.49247297     0.00488793     0.02866884    -0.02187650
