# total energy = -19902.57440863 eV

CRYSTAL
PRIMVEC
        8.25532507     0.00000000     0.00000000
        0.00002599     3.33268233     0.00000000
        0.00000000     0.00000000    12.77718494
PRIMCOORD
24 1
Ti      2.99217380     1.97494442     4.74024450    -0.05523220     0.05812778     2.10734610
Ti      5.26317750     1.35773779     8.03694056     0.05523220    -0.05812778    -2.10734610
Ti      7.11969544     1.35773893     1.64829698    -0.05395256    -0.05821545    -2.10764306
Ti      1.13565586     1.97494346    11.12888820     0.05395256     0.05821545     2.10764306
Ti      2.99216092     0.30860331     1.64834820    -0.05523220     0.05812778    -2.10734610
Ti      5.26319038     3.02407902    11.12883697     0.05523220    -0.05812778     2.10734610
Ti      1.13564298     0.30860212     8.03688933     0.05395256     0.05821545    -2.10764306
Ti      7.11970832     3.02408021     4.74029573    -0.05395256    -0.05821545     2.10764306
O       2.61287177     1.17349408     6.52009966     2.87567968     0.36154095    -1.23530266
O       5.64247958     2.15918813     6.25708540    -2.87567968    -0.36154095     1.23530266
O       1.51485752     1.17350750     0.13154828    -2.87455585     0.36116685    -1.23561556
O       6.74049389     2.15917471    12.64563643     2.87455585    -0.36116685     1.23561556
O       5.64246670     0.49284697     0.13150684    -2.87567968    -0.36154095    -1.23530266
O       2.61288459     2.83983525    12.64567787     2.87567968     0.36154095     1.23530266
O       6.74048101     0.49283354     6.52014116     2.87455585    -0.36116685    -1.23561556
O       1.51487022     2.83984873     6.25704390    -2.87455585     0.36116685     1.23561556
O       0.29995088     2.02712630     3.45143640    -1.15816310     0.32317596     0.64813215
O       7.95540041     1.30555591     9.32574866     1.15816310    -0.32317596    -0.64813215
O       4.42762429     1.30552493     2.93719670    -1.15925865    -0.32314614    -0.64763773
O       3.82772706     2.02715734     9.83998812     1.15925865     0.32314614     0.64763773
O       0.29993801     0.36078514     2.93715590    -1.15816310     0.32317596    -0.64813215
O       7.95541329     2.97189708     9.84002893     1.15816310    -0.32317596     0.64813215
O       3.82771418     0.36081612     9.32578935     1.15925865     0.32314614    -0.64763773
O       4.42763717     2.97186610     3.45139565    -1.15925865    -0.32314614     0.64763773
