# total energy = -4989.01323546 eV

CRYSTAL
PRIMVEC
        3.13877813     0.00000000     0.00000000
        0.73357337     4.86297672     0.00000000
       -0.00000461    -0.00006384     4.93196311
PRIMCOORD
6 1
Ti      1.93617316     2.43145635     2.46598150     0.00000000     0.00000000     0.00000000
Ti      0.00000000     0.00000000     0.00000000     0.00000000     0.00000000     0.00000000
O       1.71235067     0.94771004     0.96116693     0.10540653    -0.30490030    -0.38978555
O       2.15999564     3.91520266     3.97079601    -0.10540653     0.30490030     0.38978555
O       0.22382049     1.48372045     3.42714948    -0.10593720     0.30569888    -0.39062888
O       0.50974782     3.37919236     1.50481346     0.10593720    -0.30569888     0.39062888
