# total energy = -79406.59487043 eV

CRYSTAL
PRIMVEC
       10.35150501     0.00002646     0.00000000
        0.00002858    11.01713167     0.00000000
        0.00000000     0.00000000     9.26345890
PRIMCOORD
95 1
Ti      7.02157157     8.82490749     3.47893227    -0.00977919    -0.00624598    -0.00865305
Ti      7.15384245     3.22587292     3.41267375    -0.00121150    -0.01110357     0.02310908
Ti      1.84625745     8.81545852     3.44476256    -0.00926009     0.01296505    -0.00148198
Ti      1.77465464     3.13399375     3.51101970    -0.02717426     0.02515620     0.00378518
Ti      8.49034157     7.72610122     5.80405612    -0.02781600     0.03194803     0.00956656
Ti      8.48935778     2.22255597     5.83991001     0.02121469     0.01082461     0.02578817
Ti      3.28884116     7.69559120     5.79882001    -0.00903177     0.00580530    -0.01807589
Ti      3.33821798     2.18214375     5.84684614    -0.01862045    -0.03261600    -0.01154991
Ti      9.53310717     7.76501139     1.19583253    -0.01383254     0.01005353     0.01042660
Ti      9.67270546     2.19059748     1.15608603     0.00755905    -0.00383917    -0.03226299
Ti      4.44961899     7.69083405     1.21827289     0.02191223     0.02208450    -0.00584206
Ti      4.46839801     2.22259379     1.21192571     0.01802010    -0.02581106    -0.00231734
Ti      5.89648457     8.81534992     8.11224594    -0.00261558    -0.00827433    -0.02372846
Ti      5.91874962     3.30479748     8.10719108    -0.00487121     0.01047159     0.00664836
Ti      0.67859780     8.90113876     7.94791088     0.02210687     0.00419450    -0.00676072
Ti      0.73470018     3.30571667     8.06467451    -0.01239272     0.00314703    -0.02584500
Ti      7.02545760     6.03114112     1.19288712    -0.00946218    -0.00407957     0.02121984
Ti      7.02546271     0.54586236     1.21978081     0.02306640     0.02485384     0.01423158
Ti      1.74439098     6.28597746     0.95341264     0.01407500    -0.02951550     0.00770226
Ti      1.88367153     0.52204130     1.15351961    -0.00509130     0.01766040    -0.00636451
Ti      8.41529290    10.47638285     8.10801522     0.03202619     0.00019618    -0.00111329
Ti      8.51285265     4.95052866     8.08629223    -0.00299071     0.03803460    -0.01012347
Ti      3.32862151    10.45620425     8.08452792     0.00333035     0.01232896    -0.00895156
Ti      3.30632134     4.94285723     8.07340393    -0.00177998     0.02605274     0.00231656
Ti      5.89885597     6.15062410     5.96583933    -0.00383789    -0.02315511    -0.00461076
Ti      5.89921184     0.54634079     5.82206555     0.02229404     0.03461940    -0.00165373
Ti      0.73175495     6.03817802     5.79342441    -0.01740509    -0.00286164    -0.00272691
Ti      0.69070860     0.50502710     5.84680917    -0.00818562    -0.00499900    -0.02095861
Ti      9.63244771    10.49076502     3.42668733    -0.00463184    -0.00701243    -0.00554561
Ti      9.66327602     4.99111077     3.38768531    -0.04352211     0.02903059    -0.00214096
Ti      4.43408839    10.45720662     3.44881304     0.00486144     0.00054507     0.00092431
Ti      4.74554350     4.90745337     3.63221105    -0.02216035    -0.00684325     0.00558907
O       6.81401027     7.44767422     4.74142562     0.00696846    -0.00838566     0.02526084
O       6.83015453     1.92496961     4.72512473     0.04698590    -0.01200706    -0.00642622
O       1.63828064     7.44494385     4.73194517     0.00128787    -0.02288668    -0.00993526
O       1.59968199     1.87242824     4.72631435     0.03019428    -0.00795294    -0.01003913
O       8.71741662     9.07865644     4.54121021    -0.00562892     0.01161445    -0.01492989
O       8.75032984     3.56049908     4.53445267     0.00301950    -0.02368218     0.00224483
O       3.52674904     9.08006608     4.53671551     0.00662805    -0.00605007    -0.01039549
O       3.44076313     3.65200085     4.36363206     0.05700318     0.00866616     0.00364840
O       6.09587743     7.42002534     0.11793573     0.02187033    -0.01954630     0.01808720
O       6.12842434     1.92191693     0.09540591     0.01031990     0.00512010    -0.00686253
O       0.89588120     7.47947744    -0.01863729     0.00517718     0.04694682    -0.08221774
O       0.95574737     1.92885208     0.08315560    -0.01451465    -0.00830621    -0.01487204
O       9.38161406     9.10547618     9.16345341    -0.01687518     0.00602075    -0.00073096
O       9.41609272     3.57479846     9.16279861     0.00506328     0.00842525    -0.00785112
O       4.20016897     9.07164438     9.19543922    -0.00563612    -0.02759900     0.00857746
O       4.24287790     3.57689312     9.18919822    -0.01416756     0.00744078     0.01936221
O       8.69794307     6.33537031     0.09860020     0.01219860     0.00654603     0.02029115
O       8.70147096     0.82039946     0.09085981     0.01444163     0.00215587    -0.00099245
O       3.53235721     6.31790162     0.09537516    -0.00039081    -0.01659596     0.02250590
O       3.53923793     0.81716872     0.11373035     0.00046640     0.00142619    -0.00372656
O       6.79896968    10.18270067     9.19144262    -0.02434707     0.02129440     0.02458104
O       6.82396287     4.66782174     9.18550910     0.00810618     0.01419327    -0.01353841
O       1.61693484    10.21377450     9.15751129    -0.00156914    -0.01199369    -0.00491004
O       1.66138043     4.67074318     9.20887273     0.00044274     0.02801604    -0.00604852
O       9.41300898     6.31427513     4.71469116    -0.01579481     0.00386077    -0.00858415
O       9.41075354     0.80838578     4.73771147    -0.01881560    -0.01168104    -0.00403278
O       4.24677621     6.32658843     4.75270317    -0.01684819     0.01613368    -0.00825067
O       4.21992202     0.84405133     4.70657488     0.01185330    -0.00797402    -0.00652032
O       6.11516622    10.19873112     4.54759963     0.00957119    -0.01992297    -0.00723971
O       6.20764314     4.68474144     4.61592078     0.00723354    -0.02247916     0.03326674
O       0.94138578    10.17085744     4.54945133     0.01383640    -0.02482530     0.00046588
O       1.01353801     4.72651735     4.43908669    -0.01064591    -0.05202141     0.03965877
O       5.34957717     8.84095320     2.51413106    -0.01024611     0.02191403     0.00659591
O       5.42278759     3.34558003     2.52512408    -0.00636528    -0.01953268    -0.00215561
O       0.18655321     8.86706140     2.48012532    -0.00841959    -0.01289794    -0.01313860
O       0.17241769     3.37186735     2.46609627     0.01446992     0.00174218     0.00732482
O      10.17198969     7.66851838     6.73472427     0.00029465    -0.00565746    -0.00572585
O      10.17266519     2.14195190     6.76936344     0.00731145     0.01599638     0.02604528
O       4.97393832     7.65919658     6.79581814     0.00127450     0.00887365    -0.00247572
O       4.97635422     2.18225519     6.74313934     0.00293620    -0.00294751     0.00503448
O       7.92717993     7.66783218     2.13826569     0.00271483    -0.01577218     0.00498331
O       7.97689293     2.11792147     2.13624968    -0.00306167    -0.00763052     0.00908320
O       2.74168641     7.53171301     2.15977819     0.00237441    -0.01608097    -0.02327158
O       2.77568171     2.26290093     2.11453068    -0.01115319    -0.03119803     0.02439104
O       7.54813372     8.85433753     7.13857264    -0.01444935    -0.03534343    -0.01966586
O       7.58651077     3.35932869     7.13602370     0.00990338    -0.00167919    -0.02152914
O       2.38111672     8.89558038     7.11128692     0.00178435    -0.00169487    -0.00184734
O       2.41398125     3.36501335     7.11153232    -0.02550252    -0.00313855    -0.02474328
O       5.33469683     6.05387351     2.15584894    -0.00438939    -0.01151006     0.02416864
O       5.36123700     0.59264648     2.14158420    -0.00166762    -0.01296968    -0.00486813
O       0.21216373     6.13826462     2.08921597    -0.03041565    -0.00013010     0.02130083
O       0.20808557     0.61576047     2.14827586     0.00707851     0.01151803    -0.00474832
O      10.12622753    10.41318966     7.11921776    -0.01389862     0.02069559    -0.01642833
O      10.17912727     4.89867215     7.11398644     0.00544534    -0.00211705     0.02219686
O       4.98244257    10.42011784     7.14017009     0.00955062     0.00421995     0.00695252
O       4.99603473     4.90518830     7.14615223     0.02146486     0.02896297     0.02166155
O       7.58511650     6.11260787     6.79340276     0.01300284     0.01005687     0.00198515
O       7.55916224     0.60340419     6.77329068    -0.00826430     0.01148846     0.00184760
O       2.39424657     6.10839338     6.77066663    -0.00342574     0.01426037     0.00898961
O       2.41783994     0.64287683     6.74994653    -0.01176332    -0.01112311     0.01903645
O       7.95065362    10.41012159     2.50531874     0.02898123     0.01455373     0.01859628
O       7.97242716     4.90391760     2.49497720    -0.01781904    -0.00508230    -0.00080270
O       2.77281206    10.39965085     2.48521517    -0.01997259    -0.00534173    -0.00924003
