# total energy = -4988.81046158 eV

CRYSTAL
PRIMVEC
        3.01980008     0.00000000     0.00000000
        1.16469530     4.58598705     0.00000000
       -0.00000749    -0.00006201     4.76956040
PRIMCOORD
6 1
Ti      2.09224382     2.29296243     2.38478025     0.00000000     0.00000000     0.00000000
Ti      0.00000000     0.00000000     0.00000000     0.00000000     0.00000000     0.00000000
O       1.73688045     0.89372919     0.92951710    -1.13509567     0.52735505     0.44097084
O       2.44760714     3.69219568     3.84004341     1.13509567    -0.52735505    -0.44097084
O       0.35536019     1.39920814     3.31429831     1.13493266    -0.52763813     0.44094898
O       0.80932750     3.18671681     1.45526220    -1.13493266     0.52763813    -0.44094898
