# total energy = -19957.75478365 eV

CRYSTAL
PRIMVEC
        5.93400000     0.00000000     0.00000000
        0.00000000     9.29699974     0.00000000
        0.00000000     0.00000000     4.64899994
PRIMCOORD
24 1
Ti      4.54035901     6.89513602     2.06439099    -1.47285005     2.88647832     2.19602270
Ti      4.38141401     2.47738701     2.37997299    -0.32201305    -2.37430615     1.00197779
Ti      1.47708002     6.85602601     2.42301198     0.84302596     1.33412021     1.21255764
Ti      1.41527000     2.37286302     2.38202101     0.72450654    -1.53763493     0.98480332
Ti      2.97179101     4.94952600     0.05300499    -0.12312323    -2.94957141    -1.56169095
Ti      2.94798899     9.09163801     0.00847800     0.15753335     2.09640939    -0.27795667
Ti      0.05059601     4.66309998     4.56146302     0.09674371    -2.92424732    -0.84733230
Ti      5.87113099     9.16053499     0.13172201    -0.51066216     2.79914768    -0.63764513
O       4.56573602     5.59981600     0.84121699    -0.21683278    -0.49766523    -0.67644284
O       4.35994201     0.74920301     0.97141100     1.96927061    -0.31880225     0.24777010
O       1.41453598     5.76417199     0.77486398    -0.30507976    -2.04167701    -0.88806116
O       1.62662800     0.66785302     0.83566301    -2.97520995     2.17822347     1.90408489
O       4.38395797     8.32155398     3.83849799     2.87058298    -1.57264154    -1.74939775
O       4.37545298     3.87383899     3.64943100     0.38097155     1.44032944     2.02764675
O       1.54523398     8.33323002     3.61785002    -1.57963160    -0.74803626    -0.08349455
O       1.66429500     3.79711099     3.61354300    -0.96731493     1.83246987     1.94354517
O       3.02727599     6.10652703     3.17513901     0.62224371    -0.85827775     0.69392275
O       3.06245299     1.48042299     3.38835702    -0.85326847     0.26467846    -1.48202118
O       5.76007002     5.90740599     3.11135702     0.94346331     0.91724859    -0.14518485
O       5.80887398     1.73961099     3.42669601     2.46752436    -1.72503191    -0.26724030
O       2.78617299     7.69453900     1.38561200     2.36521035    -0.14669820    -0.19416490
O       3.06944999     3.21934600     1.42625202    -2.12657641     1.77706026    -1.68475300
O       0.19833002     7.88757599     1.45438700    -2.30315161    -0.69851679     0.24281302
O       0.05095702     3.29213000     1.48454401     0.31463784     0.86694083    -1.95975855
