# total energy = -19960.67995281 eV

CRYSTAL
PRIMVEC
        7.60600008     0.00000000     0.00000000
        0.00000000     7.60600008     0.00000000
       -1.89786986    -1.89786986     4.85670466
PRIMCOORD
24 1
Ti      3.82655801     6.65452701     1.18524300     0.87746641    -1.18946630    -2.75308944
Ti      3.77789000     2.68846697     1.24227201     0.18132917     1.20593628    -0.89389088
Ti      0.04236302     6.74510601     1.25724302    -1.31602813    -0.94785013    -0.79799436
Ti     -0.09663200     2.77935899     1.30670299     0.11079659     1.21319682     0.27192897
Ti      5.61363620     2.89848520     3.66086483     2.07405055     0.40977203     1.98241383
Ti      5.63150720    -0.83664479     3.60691780     2.07640440    -0.79387288     0.12331427
Ti      2.01599524     2.80227025     3.66468581    -2.06484986     0.50450693     0.57605228
Ti      2.00170524    -0.89988380     3.51188381    -1.82032680    -0.28364266     0.99269404
O       3.84355899     4.63112799     0.78369902    -0.49165578     0.47927335     0.64499926
O       4.06727402     0.82775398     0.59143098    -0.70516850     1.08896981     0.99094543
O      -0.25344500     4.69951600     0.74202499     0.83468992     0.30005685     1.08293054
O      -0.17364502     0.95869000     0.79806798     0.11158412     0.04672622    -0.10180364
O       5.75803020     4.78093421     4.13740180    -0.13797599     0.19294285    -0.66204877
O       5.62323622     0.90299621     4.11432782    -0.05424695     0.28739519    -0.47349196
O       1.85079722     4.62952522     3.98990381     0.22121394     1.07380286    -0.22507780
O       2.13409422     0.89028225     4.12163179    -0.51925273    -0.58833033    -0.41965793
O       3.79872122     2.83000622     3.24184980    -0.64550037    -0.11409506    -0.37828475
O       3.85596322    -0.87886276     3.01580681    -1.18653704    -0.52703803     1.93161293
O      -0.10863178     2.73048423     3.22447283     0.63454798    -0.02733804     0.40131284
O       0.04597323    -0.75611777     3.23636080     0.26656899    -0.61109797    -0.13845319
O       5.71475102     6.72848799     1.60313200     0.15307377    -0.46306382     0.36085061
O       5.61739098     2.82010003     1.76110803    -0.34295726    -0.26719788    -1.53505714
O       1.90694700     6.92098098     1.54273298     0.67500071    -0.68792487     0.17887583
O       1.83215499     2.74142100     1.73781200     1.06777311    -0.30166096    -1.15908073
