# total energy = -19892.17640410 eV

CRYSTAL
PRIMVEC
        8.89323655     0.00000000     0.00000000
        0.00002800     3.59020778     0.00000000
        0.00000000     0.00000000    13.76451287
PRIMCOORD
24 1
Ti      3.22338723     2.12755376     5.10653612     0.14891295    -0.10579142     2.42261231
Ti      5.66987758     1.46265390     8.65797687    -0.14891295     0.10579142    -2.42261231
Ti      7.66985372     1.46265512     1.77566538     0.16366209     0.10445676    -2.42323118
Ti      1.22341108     2.12755273    11.98884774    -0.16366209    -0.10445676     2.42323118
Ti      3.22337335     0.33244993     1.77572056     0.14891295    -0.10579142    -2.42261231
Ti      5.66989145     3.25775785    11.98879256    -0.14891295     0.10579142     2.42261231
Ti      1.22339721     0.33244865     8.65792169    -0.16366209    -0.10445676    -2.42323118
Ti      7.66986760     3.25775914     5.10659130     0.16366209     0.10445676     2.42323118
O       2.81477550     1.26417317     7.02392554     1.53256497     0.69714203    -2.12831705
O       6.07848937     2.32603449     6.74058745    -1.53256497    -0.69714203     2.12831705
O       1.63191469     1.26418763     0.14171338    -1.53124111     0.69670160    -2.12756783
O       7.26135024     2.32602003    13.62279924     1.53124111    -0.69670160     2.12756783
O       6.07847549     0.53093060     0.14166873    -1.53256497    -0.69714203    -2.12831705
O       2.81478931     3.05927706    13.62284389     1.53256497     0.69714203     2.12831705
O       7.26133636     0.53091614     7.02397025     1.53124111    -0.69670160    -2.12756783
O       1.63192838     3.05929158     6.74054274    -1.53124111     0.69670160     2.12756783
O       0.32312891     2.18376788     3.71813830    -1.71290993     0.51488648     0.22484640
O       8.57013590     1.40643978    10.04637469     1.71290993    -0.51488648    -0.22484640
O       4.76975890     1.40640641     3.16416190    -1.71343572    -0.51478467    -0.22537733
O       4.12350597     2.18380132    10.60035084     1.71343572     0.51478467     0.22537733
O       0.32311503     0.38866399     3.16411794    -1.71290993     0.51488648    -0.22484640
O       8.57014977     3.20154367    10.60039480     1.71290993    -0.51488648     0.22484640
O       4.12349210     0.38869736    10.04641852     1.71343572     0.51478467    -0.22537733
O       4.76977277     3.20151030     3.71809441    -1.71343572    -0.51478467     0.22537733
