# total energy = -4986.64880882 eV

CRYSTAL
PRIMVEC
        3.48965328     0.00000000     0.00000000
        0.52051240     3.45061543     0.00000000
       -2.00511429    -1.72533477     4.46622417
PRIMCOORD
6 1
Ti      0.39025740     2.58809346     1.11655580     0.00118194    -0.00123439    -0.00027896
Ti      1.61479435    -0.86281249     3.34966789    -0.00118194     0.00123439     0.00027896
O       0.13016480     0.86264869     0.72751130     0.00070628     0.00266829     1.55298725
O       1.87488680     0.86263214     3.73871238    -0.00070628    -0.00266829    -1.55298725
O      -0.13014345    -0.86263032     2.96062339     0.00269117     0.00062889     1.55307878
O       2.13519501     2.58791116     1.50560030    -0.00269117    -0.00062889    -1.55307878
