# total energy = -19515.99010357 eV

CRYSTAL
PRIMVEC
        5.17600016     0.00000000     0.00000000
        0.00000000     5.50899976     0.00000000
        0.00000000     0.00000000     9.26300011
PRIMCOORD
23 1
Ti      1.85119701     3.22507001     3.45222199     1.48122234    -0.36238221     2.28620598
Ti      3.42498201     2.14578898     5.79623701     0.95690916     1.44867036    -1.97862300
Ti      4.24290398     2.31781699     1.55050501     0.86465846    -1.54825848    -1.92836022
Ti      0.82922800     3.34086198     7.72198902     0.36168724     0.74183527     1.11822897
Ti      1.91752499     0.17833601     1.37025602    -0.25724308     0.33241625    -0.03413809
Ti      3.13914200     5.03383002     8.08753101     1.51104766    -0.00882660     0.25218829
Ti      0.89346599     0.45102999     5.92902399    -1.54420539     0.78868516    -2.44389745
Ti      4.58569902     5.09994998     3.27005801    -1.06689534     0.09041519     3.09240113
O       1.75671099     1.86593100     4.98246199    -0.09632924     1.26047865    -2.07301363
O       3.54918398     3.66202902     4.44690001    -0.43768805    -1.73511064     1.75109160
O       0.04118100     2.68945902     9.13368300    -1.61014161    -0.52041153     2.53400565
O       3.30878701     0.69375302     0.23696801     1.44646255     0.97809223     0.54387182
O       1.52351400     4.76780500     9.05933000     0.04163440    -0.65188622     0.59216487
O       4.29641602     0.93088999     4.63866898     0.15205073    -0.47994029     0.31907505
O       0.98209201     4.87184500     4.13986401     1.63232021    -0.28590703     2.90006275
O       0.19043502     3.43101902     2.47484002    -0.00759761    -0.20559268    -0.80349960
O       0.02599297     2.15094899     6.67590598    -1.17105719    -1.84276894    -1.11249310
O       2.48903399     1.83610303     2.22356899     0.24273434     1.31293843     0.18964798
O       2.66103199     3.41048700     7.18997501     0.17369531    -0.77976420     0.14274230
O       0.08143699     0.75082700     2.00977900     0.59593797     0.72931836    -1.28251893
O       5.11904799     4.86736801     7.16029700    -1.54848525     0.45811702    -0.24052370
O       2.50355001     0.69850900     6.94860297    -0.17866885     0.63051726    -0.82340483
O       2.93395198     4.59569798     2.51078799    -1.54204875    -0.35063535    -3.00121358
