# total energy = -18999.70260308 eV

CRYSTAL
PRIMVEC
        7.60600008     0.00000000     0.00000000
        0.00000000     7.60600008     0.00000000
       -1.89786986    -1.89786986     4.85670466
PRIMCOORD
22 1
Ti      4.54902698     6.03395899     0.53903498    -0.92164209     0.35943984     1.64042099
Ti      4.60410820     3.23117222     3.48642981    -9.92268679    16.85312210   -10.08516155
Ti      1.20603401     5.90779398     0.45669801   -16.86590460     8.99942696    18.31666450
Ti      0.26692399     2.87583700     0.51099102    -8.52782090     3.25612750    18.73424009
Ti     -1.63198878     2.55287123     4.24465884   -26.54208216    31.09274850    30.43725373
Ti     -1.31476977     1.40006923     3.43115179    -0.33720185   -39.56914089   -43.04157281
Ti     -0.06171778     2.52661425     3.96681480    41.49356553     5.99738214    -6.08193650
Ti      0.15369223    -0.90732377     4.18494981    14.42677578    -2.32406729    -5.53027243
O       3.98919799     5.04376501     2.09669398     1.91406514     1.31813283    -2.50470329
O       4.21495998     0.52276701     0.15478302    -1.92253616    -3.01557397     0.26619618
O       1.36812698     4.30089302     1.18570900     0.96356806    -3.41343459    -0.39448373
O       0.75117600     1.41545601     0.30496601    -0.01671860   -13.26380368     7.26251012
O      -1.08285980     4.32728822     3.44563283    -1.08965346     0.95329547    -2.55633878
O       4.19539624     1.79646823     2.89865279     1.07538435    -8.48389307    -3.68954109
O       0.60908524     4.15365421     4.68889880    23.19498412     4.11740752    -7.84446951
O       0.86310921     0.81256521     4.01598081    -2.06282871    -3.08581396     0.93583022
O       3.01317723     2.78749324     3.91043181    -6.26870305     2.90619200     5.24053291
O       0.90816124     2.84440921     2.49645781     0.22357164    -1.39258944    -0.18495855
O       7.03743501     6.40054701     0.43286498    -6.14773260    -0.82164646    -0.40176664
O       6.17682600     2.54653698     1.47121600     1.66706174     0.11977386    -1.17273329
O       1.24178998     6.55657503     2.02822601    -0.66452551     2.23870998     4.55283275
O       6.02421123    -0.40216376     3.79575783    -3.66894012    -2.84179561    -3.89854383
