# total energy = -19904.69153457 eV

CRYSTAL
PRIMVEC
        6.46322099     0.00000000     0.00000000
        0.00002163     3.31202521     0.00000000
        0.00000000     0.00000000     9.76489987
PRIMCOORD
24 1
Ti      2.34261967     1.96270313     3.62270821    -1.17933666     1.84217527    -2.82445814
Ti      4.12062310     1.34932222     6.14219176     1.17933666    -1.84217527     2.82445814
Ti      5.57411953     1.34932340     1.25970277    -1.17681878    -1.84310524     2.82850789
Ti      0.88912329     1.96270211     8.50519735     1.17681878     1.84310524    -2.82850789
Ti      2.34260890     0.30669058     1.25974192    -1.17933666     1.84217527     2.82445814
Ti      4.12063392     3.00533487     8.50515819     1.17933666    -1.84217527    -2.82445814
Ti      0.88911247     0.30668931     6.14215260     1.17681878     1.84310524     2.82850789
Ti      5.57413030     3.00533615     3.62274736    -1.17681878    -1.84310524    -2.82850789
O       2.04565795     1.16622043     4.98295367     6.17024467    -2.59040359     5.24671616
O       4.41758487     2.14580493     4.78194630    -6.17024467     2.59040359    -5.24671616
O       1.18600574     1.16623376     0.10053511    -6.17220951    -2.59043368     5.24466364
O       5.27723713     2.14579160     9.66436457     6.17220951     2.59043368    -5.24466364
O       4.41757406     0.48979232     0.10050344    -6.17024467     2.59040359     5.24671616
O       2.04566872     2.82223303     9.66439628     6.17024467    -2.59040359    -5.24671616
O       5.27722636     0.48977900     4.98298534     6.17220951     2.59043368     5.24466364
O       1.18601636     2.82224641     4.78191463    -6.17220951    -2.59043368    -5.24466364
O       0.23483702     2.01456151     2.63774306     3.71835597    -1.15473274     1.35250952
O       6.22840575     1.29746389     7.12715691    -3.71835597     1.15473274    -1.35250952
O       3.46645560     1.29743298     2.24473796     3.72351952     1.15487286    -1.35168240
O       2.99678717     2.01459243     7.52016186    -3.72351952    -1.15487286     1.35168240
O       0.23482625     0.35854886     2.24470678     3.71835597    -1.15473274    -1.35250952
O       6.22841657     2.95347650     7.52019304    -3.71835597     1.15473274     1.35250952
O       2.99677640     0.35857978     7.12718804    -3.72351952    -1.15487286    -1.35168240
O       3.46646642     2.95344558     2.63771188     3.72351952     1.15487286     1.35168240
