# total energy = -19900.17417669 eV

CRYSTAL
PRIMVEC
        8.44294609     0.00000000     0.00000000
        0.00002658     3.40842511     0.00000000
        0.00000000     0.00000000    13.06757551
PRIMCOORD
24 1
Ti      3.06017775     2.01982952     4.84797733     0.02136356    -0.00006608     2.23980449
Ti      5.38279517     1.38859547     8.21959830    -0.02136356     0.00006608    -2.23980449
Ti      7.28150670     1.38859663     1.68575827     0.02169729    -0.00037872    -2.24109390
Ti      1.16146622     2.01982854    11.38181747    -0.02169729     0.00037872     2.24109390
Ti      3.06016457     0.31561702     1.68581066     0.02136356    -0.00006608    -2.23980449
Ti      5.38280834     3.09280809    11.38176509    -0.02136356     0.00006608     2.23980449
Ti      1.16145305     0.31561580     8.21954591    -0.02169729     0.00037872    -2.24109390
Ti      7.28151987     3.09280931     4.84802972     0.02169729    -0.00037872     2.24109390
O       2.67225522     1.20016440     6.66828374     2.40690749     0.49101995    -1.59228452
O       5.77071776     2.20826059     6.39929189    -2.40690749    -0.49101995     1.59228452
O       1.54928610     1.20017813     0.13453802    -2.40726719     0.49141024    -1.59240099
O       6.89368693     2.20824686    12.93303725     2.40726719    -0.49141024     1.59240099
O       5.77070458     0.50404804     0.13449563    -2.40690749    -0.49101995    -1.59228452
O       2.67226833     2.90437696    12.93307964     2.40690749     0.49101995     1.59228452
O       6.89367376     0.50403431     6.66832619     2.40726719    -0.49141024    -1.59240099
O       1.54929909     2.90439074     6.39924944    -2.40726719     0.49141024     1.59240099
O       0.30676795     2.07319736     3.52987814    -1.38265186     0.39923179     0.48322102
O       8.13620496     1.33522764     9.53769749     1.38265186    -0.39923179    -0.48322102
O       4.52825212     1.33519595     3.00395117    -1.38396724    -0.39921919    -0.48364988
O       3.91472086     2.07322910    10.06362422     1.38396724     0.39921919     0.48364988
O       0.30675478     0.36898480     3.00390944    -1.38265186     0.39923179    -0.48322102
O       8.13621814     3.03944019    10.06366595     1.38265186    -0.39923179     0.48322102
O       3.91470769     0.36901648     9.53773911     1.38396724     0.39921919    -0.48364988
O       4.52826529     3.03940851     3.52983646    -1.38396724    -0.39921919     0.48364988
