# total energy = -19517.63043782 eV

CRYSTAL
PRIMVEC
        7.60600008     0.00000000     0.00000000
        0.00000000     7.60600008     0.00000000
       -1.89786986    -1.89786986     4.85670466
PRIMCOORD
23 1
Ti      3.78206500     6.55868099     1.18839002     0.49553687     1.05448899    -0.97716329
Ti      3.87201402     2.80260500     1.17598700    -0.76410489    -1.20174563     0.98100760
Ti      0.09060202     6.88103101     1.18643101    -0.84522580    -1.06166134     1.24498338
Ti     -0.12511301     2.97539201     1.10287498     1.68151932    -0.78596467     0.74368647
Ti      5.62673424     2.94120520     3.81662583     0.88612563    -0.49215278    -2.37689448
Ti      5.71124025    -0.98683879     3.57050782     0.18893347     0.62447208    -0.23723141
Ti      2.11069723     2.71604420     3.72190082    -0.59554716     1.01503308    -1.79339011
Ti      1.90726922    -1.03289277     3.60443882    -0.73363859    -0.96642199     1.20439104
O       4.04196998     4.66057199     0.76674698    -0.57396660     0.14828894     0.64441768
O       4.06328698     0.89823398     0.66881601    -0.38945594    -0.36436145     0.54431997
O      -0.13175799     4.93505898     0.74397098     0.74957275    -0.99488977     2.74694141
O      -0.28061698     0.96585802     0.83718699     0.58976192     0.88734459    -0.81536294
O       5.60903024     4.77537620     3.96179883     1.15584423     1.71524166     0.54438913
O       5.65121821     1.03070324     4.14050083     0.34738805    -1.07186888    -1.02056970
O       1.41712821     4.58879323     4.01799682     1.04992733    -0.16577657     0.24444721
O       1.83736125     0.87456521     4.01666980     0.18445538     0.81634201     0.48371133
O       3.92126221     2.75959723     3.38465479    -2.72832405     0.20155322    -1.45968857
O       3.70743021     6.31621224     3.05369781     0.64099220     0.15821649     1.64242774
O       0.00399920    -0.80601278     3.25769479    -0.92974801    -0.42569437    -0.47399127
O       5.64726298     6.65122399     1.71021499     0.69774289     0.18254788    -0.53977554
O       5.76053702     2.81211400     1.72855198     0.22763219     0.42975234    -0.03736149
O       1.94897500    -0.66962603     1.71690098    -1.34069941    -0.12701177    -1.91013855
O       1.83335300     2.74552800     1.62741002     0.00527848     0.42426792     0.61684439
