# total energy = -19518.33829181 eV

CRYSTAL
PRIMVEC
        7.60600008     0.00000000     0.00000000
        0.00000000     7.60600008     0.00000000
       -1.89786986    -1.89786986     4.85670466
PRIMCOORD
23 1
Ti      3.81508502     6.53300902     1.23007897    -0.55424263     1.31812718     0.69692785
Ti      3.79582498     2.88526900     1.04922101     0.59695381    -1.35315590     1.70250004
Ti     -0.03069498     6.58384200     1.24662502     0.68292793     1.60491996    -0.04965008
Ti      0.00369800     2.90213901     1.13729198    -0.56767228    -1.30645513     0.07272137
Ti      5.72375021     2.88724225     3.67480881    -2.18756069     0.80241254    -1.43800182
Ti      5.67811020    -0.90590880     3.63912380     0.24993420    -0.50083128     1.21616156
Ti      1.84574125     2.92050622     3.61970680     2.62819265    -0.45572152    -1.12941148
Ti      1.87892421    -1.03095677     3.68095679    -0.11320957     0.55693663    -0.37493897
O       4.03060098     4.74711697     0.67298201    -0.77858509    -0.55501473     1.03757935
O       3.78504500     0.94214702     0.79907998    -0.11232511     0.11937842     0.25639899
O      -0.18585599     4.82023398     0.75233198     0.51629313    -1.49067423     0.87669045
O      -0.00101703     0.93699198     0.84207500     0.19052190     0.39124671    -0.42688119
O      -1.61894980     4.73273621     4.16708579    -0.24915002     0.22983125    -0.99438326
O       5.54877923     0.96835420     4.06412679     1.04361759    -0.03922811    -0.59329050
O       1.79402624     4.73200023     4.14583281    -0.57933583    -0.21656950    -0.76222027
O       1.98813322     0.90122024     4.01085679    -0.77415276     0.93467579    -0.04169097
O       3.80879824     3.04302621     3.41017679     0.04685246    -0.26142447    -1.73187079
O       3.81760724    -1.00932279     3.28996683    -0.18710490    -0.47709202    -0.38870389
O      -0.01280175    -0.98878177     3.29101079     0.03384499     0.52694393    -0.57453610
O       5.65592699     6.72070602     1.59212199     0.47569334    -0.19910013     0.71659757
O       5.79602698     2.84436402     1.63423598    -0.54051499     0.04625802     1.05745861
O       1.90176001     6.40900702     1.67357200     0.25985995     0.24064506     0.29135546
O       1.90941000     2.97800699     1.55466000    -0.08083757     0.08389178     0.58118857
