# total energy = -19958.98278566 eV

CRYSTAL
PRIMVEC
        7.60600008     0.00000000     0.00000000
        0.00000000     7.60600008     0.00000000
       -1.89786986    -1.89786986     4.85670466
PRIMCOORD
24 1
Ti      3.83140098     6.77533500     1.28515198    -1.39871998    -0.10734822     0.34693888
Ti      3.71477201     2.99551302     1.14327999     2.11263100     0.19166167     1.28155450
Ti      0.00225001     6.43513001     1.11064499     1.09979313     0.63439654     1.56942175
Ti      0.18941101     2.75924099     1.06690399    -1.71941045    -0.63357893     0.40523660
Ti      5.75376922     2.85472521     3.54358979    -0.15601974    -1.26852723    -1.54087401
Ti      5.71079521    -1.13924178     3.58833680    -1.64810011     1.30087995     0.86254501
Ti      1.91281420     2.98893122     3.75587781     0.49236798     2.10716560    -0.35279637
Ti      1.67546725    -0.84367877     3.69701081     2.25229338    -1.66608884    -0.38203856
O       3.62675200     4.86103899     0.84179802     0.72831152    -0.34420656     0.37479602
O       3.67426000     1.05719999     0.86312202    -0.21578943     0.49935881     0.11850605
O      -0.13250000     4.66625298     0.63780501     0.84558524    -1.18173962     0.79961852
O       0.39749699     0.82414203     0.61877400    -1.00792141     0.64691242     1.89291498
O       5.69905620     4.63465924     4.12853279    -0.19998099     0.80589279    -1.32749756
O       5.91411024     0.82734323     3.98205881    -0.16160598     0.87553448    -0.08238203
O       1.90652525     4.94388725     4.25519079    -0.36381843    -0.66748640    -0.43543911
O       1.85596421     1.20178524     4.12291679    -0.62651302    -3.32333693    -0.57973410
O       3.73773021     3.17840324     3.53490683     0.66048322    -1.08005476    -1.70094992
O       3.67877923    -0.96133678     3.47854184     0.94583696     0.63357610    -1.45191432
O      -0.02708980     3.07537820     3.14063782     0.41983173    -0.46361507     0.08469860
O      -0.08608677     6.24519020     3.22364181     1.60537813     1.14952522    -0.86440006
O       5.68423998     6.47409899     1.62396798    -0.14053732     0.69840341    -0.03313588
O       5.75674600     2.82466201     1.51284500    -1.08067620    -0.33332874     0.81443785
O       1.91750499     6.34125698     1.63283800    -1.40763142     1.50606203     1.17233349
O       1.97653000     2.88651198     1.77724402    -1.03578729     0.01994277    -0.97183982
