# total energy = -4988.59502637 eV

CRYSTAL
PRIMVEC
        3.10949711     0.00000000     0.00000000
        1.19929021     4.72220449     0.00000000
       -0.00000771    -0.00006385     4.91123051
PRIMCOORD
6 1
Ti      2.15438968     2.36107023     2.45561531     0.00000000     0.00000000     0.00000000
Ti      0.00000000     0.00000000     0.00000000     0.00000000     0.00000000     0.00000000
O       1.78847096     0.92027560     0.95712652    -0.32255864     0.14369721    -0.02971862
O       2.52030835     3.80186485     3.95410411     0.32255864    -0.14369721     0.02971862
O       0.36591545     1.44076878     3.41274282     0.32337599    -0.14236923    -0.03091727
O       0.83336693     3.28137177     1.49848781    -0.32337599     0.14236923     0.03091727
