# total energy = -19904.79855685 eV

CRYSTAL
PRIMVEC
        6.67310440     0.00000000     0.00000000
        2.41193834     6.68010635     0.00000000
        0.00000000     0.00000000    12.13626616
PRIMCOORD
24 1
Ti      3.84799192     3.95862473     4.50246821    -0.31194743    -1.95367275     0.54575182
Ti      5.23705107     2.72148144     7.63379809     0.31194743     1.95367275    -0.54575182
Ti      6.73774847     2.72148371     1.56561649     0.10208337    -0.90209193    -0.00888496
Ti      2.34729455     3.95862266    10.57064995    -0.10208337     0.90209193     0.00888496
Ti      2.64202291     0.61857173     1.56566514    -0.31194743    -1.95367275    -0.54575182
Ti      6.44302010     6.06153457    10.57060129     0.31194743     1.95367275     0.54575182
Ti      1.14132541     0.61856927     7.63374943    -0.10208337     0.90209193    -0.00888496
Ti      7.94371761     6.06153710     4.50251686     0.10208337    -0.90209193     0.00888496
O       2.96136423     2.35217893     6.19304373     1.80063060     2.02369497    -0.70741950
O       6.12367876     4.32792725     5.94322257    -1.80063060    -2.02369497     0.70741950
O       2.07380581     2.35220588     0.12494970    -0.45829519    -0.42183540     1.34681710
O       7.01123725     4.32790035    12.01131627     0.45829519     0.42183540    -1.34681710
O       4.91770973     0.98787411     0.12491031    -1.80063060    -2.02369497    -0.70741950
O       4.16733325     5.69223206    12.01135565     1.80063060     2.02369497     0.70741950
O       5.80526821     0.98784715     6.19308311     0.45829519     0.42183540     1.34681710
O       3.27977471     5.69225903     5.94318318    -0.45829519    -0.42183540    -1.34681710
O       1.70952690     4.06321925     3.27830827     0.58492773     2.33289338     2.28102135
O       7.37551609     2.61688692     8.85795803    -0.58492773    -2.33289338    -2.28102135
O       4.52385312     2.61682470     2.78986346     0.57703650     1.98727168     1.36903735
O       4.56118987     4.06328148     9.34640264    -0.57703650    -1.98727168    -1.36903735
O       0.50355787     0.72316612     2.78982468     0.58492773     2.33289338    -2.28102135
O       8.58148512     5.95694006     9.34644142    -0.58492773    -2.33289338     2.28102135
O       3.35522084     0.72322834     8.85799667    -0.57703650    -1.98727168     1.36903735
O       5.72982215     5.95687783     3.27826956     0.57703650     1.98727168    -1.36903735
