# total energy = -19519.99928142 eV

CRYSTAL
PRIMVEC
        5.17575250     0.00001323     0.00000000
        0.00001429     5.50856584     0.00000000
        0.00000000     0.00000000     9.26345890
PRIMCOORD
23 1
Ti      1.85313284     3.38417367     3.40046659    -0.03484515    -0.03508734     0.02427277
Ti      3.37180535     2.17356752     5.77368789     0.00928631     0.02461806    -0.01830086
Ti      4.56546821     1.94761691     1.42343314     0.00193141    -0.05008202     0.03641609
Ti      0.85350136     3.30011200     7.94792145     0.00134572    -0.01785400    -0.04090729
Ti      2.01516211     0.51426866     1.23849421     0.03436615    -0.01675306     0.04109499
Ti      3.16539120     5.16282307     7.92583827     0.03083062    -0.02472528    -0.05664939
Ti      0.63861585     0.71159574     5.65173441    -0.02261620     0.04399108     0.00635628
Ti      4.55881461     4.83952659     3.56042428    -0.00547928     0.01229862     0.03132710
O       1.54990123     1.95275054     4.66231703    -0.01379012    -0.03541542    -0.02611650
O       3.56030612     3.53628974     4.51555710     0.01838725    -0.00376230    -0.02278641
O       0.73770015     2.10392267     0.10439542     0.00243561    -0.00114311     0.01245417
O       3.51940907     0.90382955     0.06261917    -0.00534301    -0.04554685     0.04252401
O       1.72933727     4.68675193     9.15458786    -0.06729736     0.00761947    -0.02058863
O       4.08040707     0.78021036     4.70216735    -0.02693180    -0.04203138    -0.02496825
O       1.01088723     4.63068063     4.61751557     0.03402779     0.01103775    -0.01615270
O       0.16801997     3.35293145     2.41479796     0.01174995     0.01001805    -0.04749935
O       4.95078668     2.13304947     6.82948293     0.00646041     0.01361374     0.03150914
O       2.76878987     2.14720859     2.09138797     0.05800642    -0.00925957     0.02677702
O       2.49180950     3.39018253     7.14617608     0.00827433     0.06560018    -0.00084461
O       0.25846175     0.53492485     2.18317889    -0.02761674     0.06731691    -0.00437833
O       4.90628347     4.75837185     7.38537764    -0.03126643     0.02223054    -0.01755216
O       2.32445519     0.71016668     6.74288121     0.02709944     0.02100464     0.04063604
O       2.80474178     4.87910019     2.45898058    -0.00901506    -0.01768920     0.00337689
