# total energy = -18999.27297364 eV

CRYSTAL
PRIMVEC
        7.60600008     0.00000000     0.00000000
        0.00000000     7.60600008     0.00000000
       -1.89786986    -1.89786986     4.85670466
PRIMCOORD
22 1
Ti      4.84359498     5.03043900     0.36103102    -2.70029387    -0.23353570     0.19443641
Ti      5.57475623     3.59524421     2.83734782    -5.78609035     1.66742658    -7.68811835
Ti      1.16011100     6.31186399     0.11848803     8.04740778     9.78812472     5.62996751
Ti      0.38224298     3.14849700     1.01217997     6.67718181   -10.69267643    10.90789198
Ti     -1.72591176     2.89197722     4.59910880   -41.61416496    41.66632932    33.74945213
Ti      5.70764523     1.55914123     3.87280879   -23.98970314   -40.26566534   -30.62057628
Ti     -0.47770476     2.34443625     4.08907379    66.48039504    -9.40896631   -16.93714836
Ti     -0.12975479    -0.62511677     4.00763781     4.11439008    -0.90862151    -2.15533215
O       4.20631799     4.09370298     2.17609899    -6.34453905     4.69587433    -4.51406538
O       3.42371500     7.28892300     0.22814101    -0.00680006    -0.22333947    -0.60765115
O       1.30588600     4.67785497     1.22280601     1.93280438     1.62575027     1.83374745
O       1.44677801     0.27685400     0.61404400     0.72321611     4.86666789     1.16722136
O      -0.86640879     4.69160924     2.64256180     6.49143188     7.00463815     3.33786675
O       5.32842199     2.01864002     2.01274202     0.64665120    -2.96265139     1.16303766
O       1.10650624     3.31922022     4.43272880     1.92536232     0.84537826     0.39070421
O       2.28870701     2.74139798     0.27819102    -0.72831049    -2.38145690    -2.48716142
O       3.56593223     2.04698323     4.05770480    -2.22612236     1.80966597    -1.60541541
O       0.26217399     2.10639602     2.22410002    -0.04116621    -3.81673438     4.49520094
O       7.09185702     6.82143602     0.08028201    -3.15427989    -1.32350027    -1.05403313
O       6.51101800     3.85960698     0.99252501    -7.84546710     4.29730922    -0.24234867
O       0.76149199     6.45461802     2.38407798    -1.25863671     2.16628634     3.30642344
O       4.90191222     0.31157623     4.49334981    -1.34326615    -8.21630336     1.73590074
