# total energy = -4935.65826062 eV

CRYSTAL
PRIMVEC
        4.87753768     0.00000000     0.00000000
       -0.00000674     2.34844392     0.00000000
       -2.43879617    -1.17428757     5.25467802
PRIMCOORD
6 1
Ti     -0.00020837     1.76141081     1.31366923    -0.03147777    -0.02803301    52.68351714
Ti      2.43894310    -0.58725461     3.94100814     0.03147777     0.02803301   -52.68351714
O       0.00005190     0.58709972     0.85594399     0.03059331     0.02777050   -43.07904716
O       2.43868267     0.58705638     4.39873343    -0.03059331    -0.02777050    43.07904716
O      -0.00001992    -0.58712642     3.48328290    -0.00116394     0.00042346    -0.54397801
O       2.43875445     1.76128252     1.77139452     0.00116394    -0.00042346     0.54397801
