# total energy = -19959.96599231 eV

CRYSTAL
PRIMVEC
        7.60600008     0.00000000     0.00000000
        0.00000000     7.60600008     0.00000000
       -1.89786986    -1.89786986     4.85670466
PRIMCOORD
24 1
Ti      3.96581000     6.65427999     1.16403998    -1.67374996    -1.38551016    -0.15426496
Ti      3.78424002     2.70888999     1.17822601    -0.77744249     1.61591811    -0.02487260
Ti     -0.00661001     6.64297798     1.13776802     1.47694993     1.39764808     0.50547598
Ti     -0.12281902     2.94041303     1.32547799     1.17790250    -1.26780038     0.84093796
Ti      5.62644822     2.75693224     3.66669880     1.31381492     1.59302089     0.54726054
Ti      5.68126124    -0.88387576     3.63523180     1.52508434    -1.92997539     0.58625776
Ti      2.01411323     2.81061622     3.68590280    -1.39511992     0.35599739    -0.89818206
Ti      2.04099823    -0.95121680     3.66418881    -1.24261359    -0.30075388    -3.12785306
O       3.87961702     4.74250302     0.68045500     0.00524634    -1.23953238     1.90949552
O       3.90656802     0.91070198     0.75499697     0.08612787     0.41815769    -0.18781967
O      -0.26616901     4.75664698     0.93354101     0.72202440    -0.90942061    -1.52969228
O      -0.09907098     0.98004701     0.88615102     0.22047012     0.61714855    -1.31304744
O       5.41145721     4.79330420     4.00836082     0.56560151    -0.03721339     0.53672081
O       5.61300420     0.93111621     3.93310880     0.50722408     1.19515821     1.74469623
O       2.03261623     4.66127723     4.05040184     0.21376185     2.09609649    -0.64976223
O       1.77561621     0.85432222     4.05439284     0.24371496     0.65120128     0.11738916
O       3.80449825     2.83897620     3.04286481    -1.08200931    -0.38305620     1.80864010
O       3.91245723    -0.59149279     3.06532082    -2.01896439    -1.07152924     1.07803722
O      -0.12909380     2.99317120     3.40515781     0.31762597    -0.34692808    -0.82742038
O       0.01455222    -0.98760779     3.08520783     0.17985310    -0.11118714     1.39189524
O       5.74566598     6.64590798     1.58959200    -0.59726183     0.04962180     0.19497711
O       5.66929702     2.78813899     1.74268001    -0.51498778    -0.11011062    -1.35446999
O       1.95151500     6.76238000     1.56895900     0.20845921    -0.80443317     0.35449484
O       1.78076903     2.83470098     1.77558700     0.53828841    -0.09251732    -1.54889380
