# total energy = -19961.13842892 eV

CRYSTAL
PRIMVEC
        7.60600008     0.00000000     0.00000000
        0.00000000     7.60600008     0.00000000
       -1.89786986    -1.89786986     4.85670466
PRIMCOORD
24 1
Ti      3.76169702     6.58326800     1.28638698    -0.75693125     1.10601828    -0.40343709
Ti      3.75254902     2.93510099     1.21622702     1.11061362    -1.45490400     0.38984880
Ti     -0.03179202     6.64234101     1.19156000     0.78105206    -1.04206233     0.17606561
Ti      0.02504802     2.83344498     1.18802801     0.01384874     0.99948741    -0.82070080
Ti      5.76966824     2.87026725     3.56856679    -1.47344989    -0.07745400     0.62339068
Ti      5.74556723    -0.98331177     3.63856483     0.25351961     0.01416396    -0.36724777
Ti      1.82481922     2.88777624     3.63959180     1.83453755     0.44241657     0.03542981
Ti      1.86962625    -0.93278375     3.67037679    -0.09395714    -0.29417108     0.78181774
O       3.67291298     4.79072203     0.88405399     0.37641890     0.35383406    -1.26011664
O       3.63754399     1.06826498     0.82779599     0.83664191    -1.76026427     0.12663433
O       0.11644302     4.70570901     0.72109799    -0.32401774    -0.41488750     0.39645680
O       0.14732898     0.88551801     0.69617501    -0.64716208     0.95672121     0.82302457
O       5.97303624     4.67879125     4.10447380    -0.67863650     0.79509055    -0.49527487
O       5.82020223     0.94351520     3.97384783    -0.57680535    -0.67218663     0.35063947
O       1.66132621     4.78143221     4.02628379     0.65486202    -0.81182690     1.34068013
O       1.88498720     0.96203821     4.03013683     0.25897858     1.01081750     0.14357997
O       3.79761921     3.01262524     3.27083183     0.57448647    -0.34808662    -0.25210344
O       3.77072224    -1.18774977     3.28230582     0.98832342     0.71160474    -0.35140925
O       0.03192320     2.82973121     3.20944483     0.06043200    -0.43815831    -1.06932272
O       0.00353824    -0.99037078     3.19651280    -1.42119503     0.47172253    -0.12904654
O       5.68484197     6.56495598     1.56598201    -0.16511116     0.37836831     0.26544285
O       5.76833498     3.01811598     1.58444501     0.16246935    -0.70006203     0.04620711
O       1.82527701     6.51475399     1.76403099     1.06964205     0.69279814    -1.10168443
O       2.00387402     2.86605801     1.61357902    -2.83855962     0.08102063     0.75112596
