# total energy = -19960.75811714 eV

CRYSTAL
PRIMVEC
        5.93400000     0.00000000     0.00000000
        0.00000000     9.29699974     0.00000000
        0.00000000     0.00000000     4.64899994
PRIMCOORD
24 1
Ti      4.43223402     7.03972100     2.28322002     0.00428552    -1.40180710     0.20478433
Ti      4.47071801     2.22670902     2.21976600    -0.51404959     0.87879670     0.87189534
Ti      1.43006400     6.99918999     2.40126798    -0.07059995    -1.82363993    -0.41386292
Ti      1.53130598     2.37101899     2.33378597     0.43689152     0.20715180     0.39992393
Ti      2.97695398     4.66454998     4.57954998     0.25551736     0.82891908     0.36305970
Ti      2.93838501     9.25236100     0.06194300     0.15626528     0.04035194    -0.47509942
Ti      5.92798998     4.57945701     0.04066198    -0.19797065     1.02546071    -0.20039983
Ti      0.01586600     0.01358001     4.62433801    -0.25253205    -0.27479241    -0.26616584
O       4.34491999     5.67109898     0.90511900     0.74034352    -0.68347995    -0.49595621
O       4.44220801     0.84218898     0.85442202     0.48615876     0.64585158     0.60111309
O       1.49924900     5.59749698     0.86242398    -0.37467440    -0.27917280     0.04568184
O       1.44848101     0.93132502     0.84915301     0.37624998     0.11295812     0.07053413
O       4.45655998     8.37992202     3.73840602     0.18853161     0.23589855     0.36569842
O       4.47969402     3.73003401     3.76268600    -0.17689299    -0.03768467     0.45241431
O       1.62336599     8.34402401     3.73442603    -1.29469053     0.52771783     0.72849484
O       1.41544701     3.67270898     3.80604202     0.43637833     0.05854430    -0.30834789
O       3.04468402     6.02826700     3.22219398    -0.62174414     0.17292912    -0.08543136
O       2.98475300     1.44723998     3.31560499    -0.14380031    -0.12633017    -0.94425341
O       5.85108100     5.98529998     3.19569898     0.57504466     1.04859653    -0.35807278
O       5.88806699     1.45202099     3.12225500     0.74990777    -1.32396178     1.31163694
O       2.85893502     7.85200898     1.50491300     0.98553532     1.20491041    -1.07030488
O       3.01188900     3.32203798     1.54616401    -0.55386725    -0.62428491    -0.58871085
O       0.11309200     8.03140599     1.48042500    -0.83064943    -0.62590239    -0.19334292
O       0.03383300     3.21494500     1.41960301    -0.35963807     0.21296918    -0.01528856
