# total energy = -19961.07816506 eV

CRYSTAL
PRIMVEC
        5.93400000     0.00000000     0.00000000
        0.00000000     9.29699974     0.00000000
        0.00000000     0.00000000     4.64899994
PRIMCOORD
24 1
Ti      4.40015101     6.96949098     2.29141502     0.93303106    -0.80054952     0.22887069
Ti      4.49383898     2.26660602     2.28872002    -0.02585348     1.08271483     0.72673929
Ti      1.50237200     7.02331502     2.38002400    -1.06121911    -1.16244811    -0.17773940
Ti      1.48528402     2.35123702     2.27984800     0.23406278     0.16670936     0.16257657
Ti      2.97389402     4.63633700     4.63649898    -0.22926150    -0.58979997     0.31928485
Ti      2.97513600     9.28346201     4.62304502    -0.40069141     0.68858513    -0.41347879
Ti      5.92560101     4.68768899     4.62751799     0.31054541    -0.12526831    -0.01824738
Ti      5.91197898     9.25077003     0.06866202     0.40516564     0.37612014    -0.31280644
O       4.53317299     5.52523402     0.96866599    -1.07986296     0.63440837     0.11542741
O       4.50999101     0.94086598     0.97209602    -0.47315206    -1.10887581    -1.34442726
O       1.46188798     5.51683698     0.96960999     0.54597576     0.70417657     0.16128305
O       1.48604698     0.90199702     0.82688898    -0.24547976     0.32068533     0.73752867
O       4.42172001     8.34571400     3.80554099     0.23285950     0.53525837    -0.22231489
O       4.47372601     3.69087199     3.76699202    -0.51515542     0.52215268    -0.14127960
O       1.49996202     8.42658900     3.73571500     0.02316411    -0.51570615    -0.12602884
O       1.47589398     3.79381702     3.74922701     0.32492637    -0.53114332    -0.61139442
O       3.02293102     6.00214300     3.25544801    -0.52249592     1.17239905    -0.60944115
O       2.90576800     1.36236201     3.19108201     0.21355616     0.45352400    -0.13530101
O       0.02148502     6.20523298     3.33441300     0.18687350    -0.17757588    -0.63197122
O       0.02116900     1.40706299     3.18724400    -0.23622945     0.07725679     0.08043828
O       2.99851801     7.93115601     1.41895599    -0.37340454    -0.55874489     0.55607068
O       2.91840899     3.28446100     1.43363399     0.15467531    -0.58129707     0.10453749
O       5.88895400     7.84005899     1.40368298     0.80110385     0.50862687    -0.01201014
O       5.82449598     3.25186802     1.29375900     0.79686615    -1.09120873     1.56368356
