# total energy = -4984.12798753 eV

CRYSTAL
PRIMVEC
        2.75070898     0.00000000     0.00000000
        1.06091057     4.17733474     0.00000000
       -0.00000682    -0.00005648     4.34455007
PRIMCOORD
6 1
Ti      1.90580625     2.08863905     2.17227508     0.00000000     0.00000000     0.00000000
Ti      0.00000000     0.00000000     0.00000000     0.00000000     0.00000000     0.00000000
O       1.58210892     0.81408996     0.84668884    -5.16009000     2.39854241     2.77950624
O       2.22950354     3.36318814     3.49786132     5.16009000    -2.39854241    -2.77950624
O       0.32369443     1.27452623     3.01896480     5.15839744    -2.39642253     2.77690223
O       0.73720921     2.90275195     1.32558537    -5.15839744     2.39642253    -2.77690223
