# total energy = -19072.99116573 eV

CRYSTAL
PRIMVEC
        7.60600008     0.00000000     0.00000000
        0.00000000     7.60600008     0.00000000
       -1.89786986    -1.89786986     4.85670466
PRIMCOORD
22 1
Ti      3.54528702     6.54659400     1.45099100     0.54166890     1.30839477    -0.81481838
Ti      3.89342500     2.91455398     1.25652000     1.63721765    -1.20966386     0.74770022
Ti     -0.12474401     6.48575598     0.85869502    -0.50217314     1.02230725     3.33280399
Ti      0.30698800     2.86654501     1.06535499    -1.11906870    -1.36083064    -0.69243485
Ti      6.03626123     2.87232321     3.48029384    -3.14416080     0.45489182    -1.40485797
Ti      5.90641823    -0.84055880     3.53761781    -0.61532049    -0.42095582    -0.53627267
Ti      1.89935024     3.05289923     3.67667183     2.89715097    -2.67227912     0.13314745
Ti      1.14128324    -1.10554875     4.02828583     2.38333021     1.77933003    -1.05278692
O       3.61175702     4.77721001     1.01309101    -0.06913930     1.12645985    -0.15746599
O       3.99812801     0.88236999     0.88783099    -1.42746081     0.44278655    -0.07337751
O       0.42000401     4.63444101     0.68349502     0.18216504     1.89992536    -0.48759113
O      -0.01397499     0.83106298     0.51111400     0.38495239     1.57765828     1.76699233
O       5.42789620     4.71886420     4.00341979     0.47553111    -0.49625086    -2.79666708
O       5.88803323     1.07763222     3.82142181     0.54028616    -2.46200600     0.12062412
O       1.93685425     4.84023222     4.16788982    -0.52785873    -0.85827672     0.24264564
O       1.64959921     1.22147921     4.27802484    -0.21375543    -1.66803002    -1.33714718
O       3.93811423     2.79918022     3.34645179    -0.93212294     0.49302670    -1.00029988
O       0.16675322     3.25175721     2.94643183     0.56781883     0.01914650     1.11191151
O       5.56766700     6.42724098     1.62877498     1.83708963     0.28205963     0.76753371
O       5.91701902     2.97448500     1.48932301    -0.46614298    -0.43868590     0.48948783
O       1.73972598     6.54988998     2.08598201    -0.53227666     0.69335350     0.78619762
O       2.09412599     2.49683501     1.59329899    -1.89773092     0.48763843     0.85467537
