# total energy = -19933.32246743 eV

CRYSTAL
PRIMVEC
        6.08150919     0.00000000     0.00000000
        0.00003333     6.47256486     0.00000000
        0.00000000     0.00000000    10.88456421
PRIMCOORD
24 1
Ti      2.20427433     3.83563595     4.03809577     0.03545527    -0.82775874     0.61275427
Ti      3.87726819     2.63692897     6.84646875    -0.03545527     0.82775874    -0.61275427
Ti      5.24492246     2.63693120     1.40414300     0.03536605     0.82802794    -0.61315074
Ti      0.83662006     3.83563397     9.48042165    -0.03536605    -0.82802794     0.61315074
Ti      2.20425779     0.59935364     1.40418665     0.03545527    -0.82775874    -0.61275427
Ti      3.87728473     5.87321146     9.48037800    -0.03545527     0.82775874     0.61275427
Ti      0.83660352     0.59935123     6.84642510    -0.03536605    -0.82802794    -0.61315074
Ti      5.24493900     5.87321387     4.03813942     0.03536605     0.82802794     0.61315074
O       1.92484779     2.27910018     5.55430992     1.35187934     1.24135066     0.03072264
O       4.15669473     4.19346480     5.33025461    -1.35187934    -1.24135066    -0.03072264
O       1.11596583     2.27912625     0.11206269    -1.35177213     1.24162217     0.03001661
O       4.96557675     4.19343873    10.77250152     1.35177213    -1.24162217    -0.03001661
O       4.15667819     0.95718231     0.11202738    -1.35187934    -1.24135066     0.03072264
O       1.92486433     5.51538261    10.77253684     1.35187934     1.24135066    -0.03072264
O       4.96556021     0.95715624     5.55434523     1.35177213    -1.24162217     0.03001661
O       1.11598225     5.51540874     5.33021929    -1.35177213     1.24162217    -0.03001661
O       0.22097555     3.93698087     2.94019241     0.47567637    -0.27783840     0.32045753
O       5.86056698     2.53558405     7.94437211    -0.47567637     0.27783840    -0.32045753
O       3.26173502     2.53552373     2.50212446     0.47550308     0.27791270    -0.32068379
O       2.81980751     3.93704119     8.38243988    -0.47550308    -0.27791270     0.32068379
O       0.22095900     0.70069838     2.50208970     0.47567637    -0.27783840    -0.32045753
O       5.86058352     5.77186654     8.38247464    -0.47567637     0.27783840     0.32045753
O       2.81979097     0.70075870     7.94440681    -0.47550308    -0.27791270    -0.32068379
O       3.26175156     5.77180622     2.94015765     0.47550308     0.27791270     0.32068379
