# total energy = -4989.35373234 eV

CRYSTAL
PRIMVEC
        3.80723752     0.00000000     0.00000000
        1.11702993     3.63968428     0.00000000
       -2.46216808    -1.81986754     4.91573059
PRIMCOORD
6 1
Ti      0.83765594     2.72990274     1.22893236     0.00073585    -0.00073585    -0.00000000
Ti      1.62444319    -0.91008618     3.68679750    -0.00073585     0.00073585     0.00000000
O       0.27929730     0.90991602     0.80073221    -0.00023757    -0.00021983    -0.88698387
O       2.18280165     0.90990046     4.11499765     0.00023757     0.00021983     0.88698387
O      -0.27926798    -0.90989435     3.25859735    -0.00021983    -0.00023757    -0.88698387
O       2.74136692     2.72971074     1.65713257     0.00021983     0.00023757     0.88698387
