# total energy = -19076.63242454 eV

CRYSTAL
PRIMVEC
        7.60600008     0.00000000     0.00000000
        0.00000000     7.60600008     0.00000000
       -1.89786986    -1.89786986     4.85670466
PRIMCOORD
22 1
Ti      3.81233002     6.58154801     1.18041299    -0.89646996     0.53597134    -0.46077862
Ti      3.78201801     2.84914900     1.22284703     0.10611358    -0.12716707    -0.55615939
Ti     -0.00732900     6.68250201     1.21691902     0.68062602     0.48792897    -0.68378463
Ti     -0.03184599     2.90671798     1.20431302     0.09134336    -0.83415436     0.56996056
Ti      5.70301022     2.86994223     3.66621783     0.39313905     0.10918888    -0.70277403
Ti      5.74224723    -0.93929179     3.63742582    -0.19987198    -0.58921299     0.18408051
Ti      1.92173920     2.85636624     3.63899182    -0.32611653    -0.33673365    -0.35692324
Ti      1.89446821    -0.98157178     3.71881683    -0.05781153     0.35701735    -2.07174299
O       3.69896200     4.77857900     0.72660000     0.48614951    -0.82552780     0.58354730
O       3.75086598     0.92100300     0.67481302     0.28073449    -0.05146476     2.36575054
O       0.02330401     4.78006598     0.80613598    -0.13665907    -0.53767829    -0.25614393
O      -0.02875300     0.97420198     0.85187001     0.03167652    -0.84903463    -0.36450646
O       5.72312324     4.70880221     3.93879280     0.10372682     1.16693057     0.66407608
O       5.72819122     0.88914521     3.95140881    -0.12754270     0.67882677     0.74773698
O       1.87286322     4.71832920     4.04673480     0.17473378     0.64954060    -0.80329726
O       1.84293825     0.93398123     4.14412479     0.45918300     0.14552012    -1.41589804
O       3.84148821     2.96121525     3.23230481    -0.38255972    -0.63771507     0.15916214
O       0.03816924     2.81543824     3.25983082    -0.43096307     0.17265915    -1.10912572
O       5.60996498     6.51397398     1.69159297     1.46639786     0.52811301     0.82659557
O       5.68958298     2.83805998     1.56594301     0.81833205     0.16425087     0.38357994
O       1.95172000     6.65480699     1.59801502    -1.27134516     0.07656208     1.68079607
O       1.96390298     2.89695201     1.57490802    -1.26281656    -0.28382084     0.61584860
