# total energy = -4984.76674540 eV

CRYSTAL
PRIMVEC
        3.04098297     0.00000000     0.00000000
        2.04082722     4.30557835     0.00000000
       -0.00001333    -0.00006403     4.89643264
PRIMCOORD
6 1
Ti      2.54089832     2.15275718     2.44821622     0.00000000     0.00000000     0.00000000
Ti      0.00000000     0.00000000     0.00000000     0.00000000     0.00000000     0.00000000
O       1.91821598     0.83908138     0.95424258    -3.57966316     1.83050272     2.01844709
O       3.16358061     3.46643300     3.94218985     3.57966316    -1.83050272    -2.01844709
O       0.62267677     1.31364996     3.40245980     3.57941582    -1.83045952     2.01804754
O       1.41813699     2.99186428     1.49397263    -3.57941582     1.83045952    -2.01804754
