# total energy = -19958.03729413 eV

CRYSTAL
PRIMVEC
        5.30560116     0.00000000     0.00000000
        1.11819876     5.53494131     0.00000000
        0.00000000     0.00000000     9.54416966
PRIMCOORD
24 1
Ti      2.58566870     3.28000110     3.54081899     0.78410242    -1.51101063     0.82563270
Ti      3.83813097     2.25494035     6.00335105    -0.78410242     1.51101063    -0.82563270
Ti      5.03129368     2.25494233     1.23122789    -1.39255318    -0.46333173     0.56835182
Ti      1.39250601     3.27999933     8.31294226     1.39255318     0.46333173    -0.56835182
Ti      2.02656945     0.51253065     1.23126616     0.78367948    -1.51059694    -0.82665908
Ti      4.39723023     5.02241096     8.31290399    -0.78367948     1.51059694     0.82665908
Ti      0.83340666     0.51252851     6.00331278     1.39225339     0.46229789     0.56373129
Ti      5.59039302     5.02241310     3.54085726    -1.39225339    -0.46229789    -0.56373129
O       2.07299296     1.94894695     4.87031687     0.63191723     0.99442080    -0.58494187
O       4.35080670     3.58599449     4.67385317    -0.63191723    -0.99442080     0.58494187
O       1.36731660     1.94896924     0.09826259     0.02161861    -0.30963267     0.50850500
O       5.05648313     3.58597225     9.44590718    -0.02161861     0.30963267    -0.50850500
O       3.79170743     0.81852388     0.09823161    -0.63161358    -0.99384847    -0.58484391
O       2.63209223     4.71641757     9.44593817     0.63161358     0.99384847     0.58484391
O       4.49738386     0.81850164     4.87034785    -0.02216986     0.30984479     0.50886187
O       1.92641576     4.71643987     4.67382219     0.02216986    -0.30984479    -0.50886187
O       0.87291658     3.36666500     2.57811843    -0.02900257     0.33472073     0.21570432
O       5.55088309     2.16827645     6.96605162     0.02900257    -0.33472073    -0.21570432
O       3.28361220     2.16822475     2.19399696     0.82621068     0.18780270    -0.33572835
O       3.14018746     3.36671670     7.35017292    -0.82621068    -0.18780270     0.33572835
O       0.31381731     0.59919439     2.19396646    -0.02920929     0.33507580    -0.21672685
O       6.10998236     4.93574712     7.35020342     0.02920929    -0.33507580     0.21672685
O       2.58108819     0.59924603     6.96608206    -0.82683752    -0.18721700    -0.33585896
O       3.84271148     4.93569542     2.57808793     0.82683752     0.18721700     0.33585896
