# total energy = -4982.62537587 eV

CRYSTAL
PRIMVEC
        3.01224873     0.00000000     0.00000000
        2.22105541     4.16447821     0.00000000
       -0.00001429    -0.00006434     4.88407700
PRIMCOORD
6 1
Ti      2.61664469     2.08220683     2.44203860     0.00000000     0.00000000     0.00000000
Ti      0.00000000     0.00000000     0.00000000     0.00000000     0.00000000     0.00000000
O       1.93897245     0.81158289     0.95183473    -5.32171346     2.48621474     3.10706388
O       3.29431695     3.35283088     3.93224253     5.32171346    -2.48621474    -3.10706388
O       0.67766618     1.27059808     3.39387428     5.32198934    -2.48717068     3.10814940
O       1.54337462     2.89381576     1.49020293    -5.32198934     2.48717068    -3.10814940
