# total energy = -19943.87360069 eV

CRYSTAL
PRIMVEC
        5.85042871     0.00000000     0.00000000
        0.31116887     6.21884528     0.00000000
        0.00000000     0.00000000    10.47425514
PRIMCOORD
24 1
Ti      2.30489732     3.68528180     3.88587395     0.04286930    -0.99401405     0.66257173
Ti      3.85670001     2.53356325     6.58838131    -0.04286930     0.99401405    -0.66257173
Ti      5.17238731     2.53356537     1.35121182     0.01126632     0.44883610    -0.47530433
Ti      0.98921009     3.68527991     9.12304355    -0.01126632    -0.44883610     0.47530433
Ti      2.14931301     0.57585940     1.35125380     0.04286930    -0.99401405    -0.66257173
Ti      4.01228433     5.64298583     9.12300158    -0.04286930     0.99401405     0.66257173
Ti      0.83362577     0.57585709     6.58833927    -0.01126632    -0.44883610    -0.47530433
Ti      5.32797163     5.64298813     3.88591599     0.01126632     0.44883610     0.47530433
O       1.96126538     2.18976105     5.34493223     1.32412248     1.30149650    -0.11797691
O       4.20033195     4.02908400     5.12932303    -1.32412248    -1.30149650     0.11797691
O       1.18312000     2.18978614     0.10783832    -1.09910047     0.90442701     0.21290388
O       4.97847740     4.02905896    10.36641664     1.09910047    -0.90442701    -0.21290388
O       4.04474764     0.91966142     0.10780436    -1.32412248    -1.30149650    -0.11797691
O       2.11684970     5.29918363    10.36645060     1.32412248     1.30149650     0.11797691
O       4.82289308     0.91963638     5.34496625     1.09910047    -0.90442701     0.21290388
O       1.33870420     5.29920879     5.12928901    -1.09910047     0.90442701    -0.21290388
O       0.40183015     3.78265409     2.82935767     0.38145646     0.05583333     0.49622644
O       5.75976725     2.43619095     7.64489765    -0.38145646    -0.05583333    -0.49622644
O       3.25968089     2.43613301     2.40780327     0.48771891     0.53064684    -0.09918394
O       2.90191651     3.78271203     8.06645181    -0.48771891    -0.53064684     0.09918394
O       0.24624583     0.67323151     2.40776984     0.38145646     0.05583333    -0.49622644
O       5.91535157     5.54561354     8.06648524    -0.38145646    -0.05583333     0.49622644
O       2.74633219     0.67328945     7.64493101    -0.48771891    -0.53064684    -0.09918394
O       3.41526520     5.54555560     2.82932418     0.48771891     0.53064684     0.09918394
