# total energy = -19911.20992926 eV

CRYSTAL
PRIMVEC
        7.89302289     0.00000000     0.00000000
        0.00002978     5.04033774     0.00000000
        0.00000000     0.00000000    12.05484811
PRIMCOORD
24 1
Ti      2.86085859     2.98689946     4.47226269     0.53431452    -0.48273585     2.04952299
Ti      5.03219357     2.05343822     7.58258555    -0.53431452     0.48273585    -2.04952299
Ti      6.80723424     2.05343992     1.55511327     0.53385969     0.48313257    -2.05003079
Ti      1.08581799     2.98689795    10.49973504    -0.53385969    -0.48313257     2.05003079
Ti      2.86084395     0.46673065     1.55516162     0.53467164    -0.49197614    -2.04901597
Ti      5.03220820     4.57360715    10.49968675    -0.53467164     0.49197614     2.04901597
Ti      1.08580329     0.46672883     7.58253719    -0.53419599    -0.49230473    -2.05017888
Ti      6.80724887     4.57360898     4.47231098     0.53419599     0.49230473     2.05017888
O       2.49820192     1.77478855     6.15149674     0.79108580     1.41133793    -1.83749818
O       5.39485030     3.26554906     5.90335150    -0.79108580    -1.41133793     1.83749818
O       1.44837637     1.77480890     0.12411142    -0.79154397     1.41226044    -1.83912234
O       6.44467592     3.26552877    11.93073643     0.79154397    -1.41226044     1.83912234
O       5.39483567     0.74538013     0.12407230    -0.79124135    -1.41231032    -1.83786250
O       2.49821656     4.29495748    11.93077555     0.79124135     1.41231032     1.83786250
O       6.44466122     0.74535984     6.15153580     0.79177434    -1.41273095    -1.83900613
O       1.44839088     4.29497784     5.90331237    -0.79177434     1.41273095     1.83900613
O       0.28678979     3.06581914     3.25631522    -2.17248656     0.71593063     0.30167227
O       7.60626244     1.97451847     8.79853296     2.17248656    -0.71593063    -0.30167227
O       4.23331032     1.97447161     2.77114719    -2.17152085    -0.71599696    -0.30262050
O       3.65974184     3.06586606     9.28370080     2.17152085     0.71599696     0.30262050
O       0.28677509     0.54565021     2.77110871    -2.17268659     0.71558970    -0.30218290
O       7.60627707     4.49468741     9.28373927     2.17268659    -0.71558970     0.30218290
O       3.65972721     0.54569713     8.79857137     2.17149669     0.71549482    -0.30249580
O       4.23332495     4.49464048     3.25627674    -2.17149669    -0.71549482     0.30249580
