# total energy = -19911.90122961 eV

CRYSTAL
PRIMVEC
        6.52144816     0.00000000     0.00000000
        0.00003574     6.94079295     0.00000000
        0.00000000     0.00000000    11.67195822
PRIMCOORD
24 1
Ti      2.36373248     4.11310748     4.33021333     0.05340235    -0.90957822     0.63143360
Ti      4.15775142     2.82768554     7.34174522    -0.05340235     0.90957822    -0.63143360
Ti      5.62434239     2.82768792     1.50571930     0.05401915     0.91030661    -0.63184087
Ti      0.89714151     4.11310536    10.16623938    -0.05401915    -0.91030661     0.63184087
Ti      2.36371474     0.64271114     1.50576611     0.05340235    -0.90957822    -0.63143360
Ti      4.15776916     6.29808208    10.16619258    -0.05340235     0.90957822     0.63143360
Ti      0.89712378     0.64270855     7.34169841    -0.05401915    -0.91030661    -0.63184087
Ti      5.62436012     6.29808466     4.33026014     0.05401915     0.91030661     0.63184087
O       2.06409210     2.44397126     5.95611106     1.41385144     1.31371233    -0.00115700
O       4.45739180     4.49682183     5.71584749    -1.41385144    -1.31371233     0.00115700
O       1.19669528     2.44399921     0.12016936    -1.41294075     1.31361412    -0.00219804
O       5.32478869     4.49679388    11.55178886     1.41294075    -1.31361412     0.00219804
O       4.45737406     1.02642529     0.12013148    -1.41385144    -1.31371233    -0.00115700
O       2.06410984     5.91436773    11.55182673     1.41385144     1.31371233     0.00115700
O       5.32477095     1.02639733     5.95614893     1.41294075    -1.31361412    -0.00219804
O       1.19671288     5.91439575     5.71580962    -1.41294075     1.31361412     0.00219804
O       0.23696101     4.22178374     3.15288718     0.49832857    -0.28737308     0.33167217
O       6.28452289     2.71900928     8.51907137    -0.49832857     0.28737308    -0.33167217
O       3.49769032     2.71894459     2.68312920     0.49876412     0.28777700    -0.33202647
O       3.02379358     4.22184843     8.98882915    -0.49876412    -0.28777700     0.33202647
O       0.23694327     0.75138720     2.68309193     0.49832857    -0.28737308    -0.33167217
O       6.28454063     6.18940582     8.98886642    -0.49832857     0.28737308     0.33167217
O       3.02377585     0.75145189     8.51910858    -0.49876412    -0.28777700    -0.33202647
O       3.49770805     6.18934113     3.15284990     0.49876412     0.28777700     0.33202647
