# total energy = -19072.18979174 eV

CRYSTAL
PRIMVEC
        5.17600016     0.00000000     0.00000000
        0.00000000     5.50899976     0.00000000
        0.00000000     0.00000000     9.26300011
PRIMCOORD
22 1
Ti      1.87588700     3.27710798     3.37559898     0.35192810     1.34489263    -1.27633722
Ti      3.54097200     2.17060999     6.00945502     1.68046876     0.66925043    -2.64845450
Ti      4.34318402     2.27977301     1.37948402     1.98717680    -0.02942860    -2.89034191
Ti      0.78279799     3.22751603     8.03160697    -1.25864520    -0.64672216     2.90486248
Ti      1.80637099     0.55832798     1.29762501     0.49528721    -0.91340119    -2.33512201
Ti      3.36871798     5.21283502     7.92819098    -0.29257905     0.02876243     2.02253668
Ti      0.68066800     0.15030301     6.13577100    -0.49176043    -0.37257741    -1.09522762
Ti      4.54782898     4.88166399     3.36980401    -0.92895483     0.35121822    -0.09181413
O       3.55186898     3.36227800     4.19384099     0.55017874    -0.15011597     2.43989219
O       0.92955001     2.00950198     0.15760200     0.23448701    -0.81643354     0.24755336
O       4.41076599     3.70404501     8.85669400    -1.70410955     0.93490231    -0.23397562
O       3.45341999     0.93958998     0.16687800     0.25519365     0.08436127     0.39547901
O       1.83310698     4.81785802     9.00462302    -1.28853634    -0.69400913    -0.30907860
O       4.42498498     0.81527000     4.86824702    -0.02096401     0.13609548     0.66689350
O       1.12131500     4.82847602     4.04109202    -0.49649666     0.41114963     3.22709073
O       0.25560298     3.65643202     2.21436702    -0.62926668    -0.80524718    -0.20330877
O       4.63513598     1.06867298     7.35939999     1.62017560     0.58678355    -1.54664768
O       2.68619701     2.10551701     2.06619702    -1.17171951    -0.63007812     1.42384378
O       1.67386702     3.99976899     6.66613901     2.14514827     0.52745815    -1.95904944
O       0.07929298     0.91104902     2.31903902     0.18371850     0.06757684    -0.45459023
O       2.23863800     1.18788100     6.71736802    -2.12352503    -1.10359656     0.92996604
O       2.75840600     4.63668398     2.19784097     0.90279487     1.01915867     0.78583020
