# total energy = -19957.54769050 eV

CRYSTAL
PRIMVEC
        5.42385405     0.00000000     0.00000000
        0.86107904     5.70803768     0.00000000
        0.00000000     0.00000000     9.73507441
PRIMCOORD
24 1
Ti      2.47616085     3.38257779     3.61164320     0.42705139    -1.26951480     0.73287883
Ti      3.80877218     2.32545973     6.12343143    -0.42705139     1.26951480    -0.73287883
Ti      5.02852844     2.32546166     1.25585518    -0.69718471    -0.29868414     0.18661896
Ti      1.25640461     3.38257608     8.47921956     0.69718471     0.29868414    -0.18661896
Ti      2.04562144     0.52855905     1.25589422     0.42705139    -1.26951480    -0.73287883
Ti      4.23931160     5.17947864     8.47918052    -0.42705139     1.26951480     0.73287883
Ti      0.82586518     0.52855696     6.12339239     0.69718471     0.29868414     0.18661896
Ti      5.45906786     5.17948073     3.61168225    -0.69718471    -0.29868414    -0.18661896
O       2.01988460     2.00989703     4.96773400     0.88707694     1.10083828    -0.42706219
O       4.26504843     3.69814049     4.76734057    -0.88707694    -1.10083828     0.42706219
O       1.29847872     2.00992011     0.10022804    -0.32818936     0.02775790     0.48211313
O       4.98645437     3.69811746     9.63484631     0.32818936    -0.02775790    -0.48211313
O       3.83450901     0.84412158     0.10019646    -0.88707694    -1.10083828    -0.42706219
O       2.45042401     4.86391594     9.63487789     0.88707694     1.10083828     0.42706219
O       4.55591495     0.84409856     4.96776563     0.32818936    -0.02775790     0.48211313
O       1.72901803     4.86393902     4.76730900    -0.32818936     0.02775790    -0.48211313
O       0.72081824     3.47195208     2.62968651     0.07283552     0.39142001     0.41366494
O       5.56411479     2.23608538     7.10538812    -0.07283552    -0.39142001    -0.41366494
O       3.24631283     2.23603230     2.23788177     0.63612278     0.45904416    -0.08766179
O       3.03862020     3.47200517     7.49719270    -0.63612278    -0.45904416     0.08766179
O       0.29027882     0.61793318     2.23785064     0.07283552     0.39142001    -0.41366494
O       5.99465420     5.09010429     7.49722378    -0.07283552    -0.39142001     0.41366494
O       2.60808078     0.61798626     7.10541914    -0.63612278    -0.45904416    -0.08766179
O       3.67685224     5.09005120     2.62965544     0.63612278     0.45904416     0.08766179
