# total energy = -4988.64295095 eV

CRYSTAL
PRIMVEC
        3.18932362     0.00000000     0.00000000
        0.00000000     4.99719197     0.00000000
        0.00000000    -0.00006485     4.99719197
PRIMCOORD
6 1
Ti      1.59466175     2.49856350     2.49859593     0.00000000     0.00000000     0.00000000
Ti      0.00000000     0.00000000     0.00000000     0.00000000     0.00000000     0.00000000
O       1.59466175     0.97386646     0.97387910     0.00000000    -0.59874304    -0.59874304
O       1.59466175     4.02326055     4.02331276     0.00000000     0.59874304     0.59874304
O       0.00000000     1.52467075     3.47247604     0.00000000     0.59915185    -0.59915185
O       0.00000000     3.47245626     1.52471582     0.00000000    -0.59915185     0.59915185
