# total energy = -19958.90919502 eV

CRYSTAL
PRIMVEC
        7.60600008     0.00000000     0.00000000
        0.00000000     7.60600008     0.00000000
       -1.89786986    -1.89786986     4.85670466
PRIMCOORD
24 1
Ti      3.69141000     6.71281900     1.29831098    -1.49923138     1.00076191     1.57328406
Ti      3.74768297     3.05787000     1.23762001     0.38908056    -0.69987305     0.20131642
Ti     -0.05644998     6.55229599     1.16874098     2.76305632    -0.90303450    -0.15719345
Ti      0.10209401     2.64184498     1.05616498    -1.25831764     1.94859944     0.11384361
Ti      5.80075624     2.91665921     3.56516381     0.57476750    -3.76581289    -0.64677461
Ti      5.78142323    -1.14117275     3.51091383    -1.27514680     2.67125428     0.62956955
Ti      1.93212425     2.96796220     3.69276083    -1.02041312    -0.09031389    -0.37726839
Ti      1.74571124    -0.96002675     3.81543983     2.49907052     0.76833204    -0.61672817
O       3.59321000     4.89508398     1.01838601     0.81891414    -1.78271180    -1.48443750
O       3.74650301     0.97992001     0.88502000    -0.27634150     1.36733579     0.69095903
O       0.26423799     4.57404098     0.69305402    -1.37890062     1.87311285    -0.71654615
O       0.40502301     0.83426497     0.61863398    -1.44842790    -0.66631809     0.52655878
O       5.92712123     4.62018624     4.00175283    -0.98363399     2.45339485     0.82373111
O       5.63628822     0.84170923     3.79040181    -0.07660579    -0.60806047     1.17737337
O       1.61638424     4.88258323     4.24656282     0.12424861    -2.25397488    -0.42399435
O       2.12329022     1.14853122     4.16796380    -0.91585068    -0.56206367     0.23936414
O       3.73746922     3.05550225     3.19025083     1.27835039     0.27334436     0.30377364
O       3.52606021    -1.20328678     3.30344883     2.69162436     0.66493843    -0.18506088
O       0.08903222     2.99083425     3.12459983    -0.59548957    -1.17980717     0.61691226
O      -0.02141279    -0.87195880     3.27125380    -1.66392551     0.02589153    -1.42134312
O       5.64017100     6.57856102     1.53383000     0.88427161    -0.22715551     0.59187768
O       5.85299302     2.93714599     1.61470802    -1.35802737    -0.47964899    -0.40231866
O       1.76382302     6.47103501     1.75165200    -0.75455195     0.93986042    -0.46393260
O       1.81723299     2.97279597     1.70160099     2.48147980    -0.76805153    -0.59296603
