# total energy = -19919.26907348 eV

CRYSTAL
PRIMVEC
        6.36356214     0.00000000     0.00000000
        1.66717219     6.56435368     0.00000000
        0.00000000     0.00000000    11.48080717
PRIMCOORD
24 1
Ti      3.29444997     3.89003011     4.25929779    -0.22105582    -1.88306637     0.71442190
Ti      4.73628454     2.67432401     7.22151003     0.22105582     1.88306637    -0.71442190
Ti      6.16736950     2.67432628     1.48106028     0.07114091    -0.46137821    -0.20499619
Ti      1.86336504     3.89002809     9.99974767    -0.07114091     0.46137821     0.20499619
Ti      2.46086402     0.60785331     1.48110631    -0.22105582    -1.88306637    -0.71442190
Ti      5.56987053     5.95650106     9.99970164     0.22105582     1.88306637     0.71442190
Ti      1.02977896     0.60785080     7.22146399    -0.07114091     0.46137821    -0.20499619
Ti      7.00095558     5.95650351     4.25934382     0.07114091    -0.46137821     0.20499619
O       2.60114727     2.31142067     5.85856829     1.80389590     2.00644594    -0.60498723
O       5.42958717     4.25293346     5.62223952    -1.80389590    -2.00644594     0.60498723
O       1.75475712     2.31144716     0.11820138    -0.76460188     0.12423909     0.95384800
O       6.27597747     4.25290708    11.36260612     0.76460188    -0.12423909    -0.95384800
O       4.59600119     0.97075647     0.11816413    -1.80389590    -2.00644594    -0.60498723
O       3.43473332     5.59359764    11.36264337     1.80389590     2.00644594     0.60498723
O       5.44239148     0.97073003     5.85860554     0.76460188    -0.12423909     0.95384800
O       2.58834297     5.59362416     5.62220227    -0.76460188     0.12423909    -0.95384800
O       1.24527156     3.99281217     3.10125262     0.50883205     1.60068792     1.71011822
O       6.78546289     2.57154195     8.37955520    -0.50883205    -1.60068792    -1.71011822
O       4.06608475     2.57148073     2.63918783     0.66136923     1.63899891     0.82924587
O       3.96464978     3.99287345     8.84161979    -0.66136923    -1.63899891    -0.82924587
O       0.41168558     0.71063519     2.63915116     0.50883205     1.60068792    -1.71011822
O       7.61904894     5.85371899     8.84165646    -0.50883205    -1.60068792     1.71011822
O       3.13106379     0.71069640     8.37959180    -0.66136923    -1.63899891     0.82924587
O       4.89967073     5.85365772     3.10121595     0.66136923     1.63899891    -0.82924587
