# total energy = -19961.19905373 eV

CRYSTAL
PRIMVEC
        5.93400000     0.00000000     0.00000000
        0.00000000     9.29699974     0.00000000
        0.00000000     0.00000000     4.64899994
PRIMCOORD
24 1
Ti      4.42053000     6.85425099     2.30061101     0.30444675     0.77981434     0.79670906
Ti      4.47421101     2.38084999     2.34129098     0.01986564    -1.62772462     0.20185841
Ti      1.48043501     6.98188198     2.26556503    -0.33171280     0.08435176     0.31061920
Ti      1.49931399     2.42966998     2.32011500    -0.09488583    -1.36425098     0.65084415
Ti      2.95569900     4.64534100     4.64437800    -0.27315642    -0.64845431    -0.06927532
Ti      2.93982400     9.22637702     4.60284299     0.65560764     1.01185880    -0.35283159
Ti      5.92427499     4.67913199     0.03155902     0.31751156    -0.43987606    -0.43980587
Ti      0.02005402     9.24358301     0.07874501    -0.91652920     1.25398224    -0.49253613
O       4.47303703     5.58385802     0.91126900    -0.27496853     0.14422223    -0.23277902
O       4.48065998     0.98815602     0.95510302     0.02791808    -0.66836777    -0.61853617
O       1.45779903     5.55724099     0.89408201     0.17381975     0.34415823    -0.03135564
O       1.53705099     0.87359300     0.81088000    -0.24159868     0.46518935     0.83788169
O       4.49583102     8.38573699     3.76238802    -0.25082740    -0.22629239    -0.28554631
O       4.42341401     3.73090102     3.84941899     0.19529798     0.04873142    -0.39165320
O       1.48123099     8.39344203     3.68124101     0.21115193    -0.44009126     0.09952461
O       1.49282802     3.69670998     3.79264399    -0.17458620     0.61630034     0.29510927
O       2.92979598     5.96288398     3.20715900     0.41738533     0.93159947    -0.40058522
O       2.89717199     1.44410799     3.19850102     0.48797988     0.02432702    -0.11692379
O       0.05771302     6.03210899     3.17294700    -0.56051432    -0.03638267     0.32715037
O       0.06788900     1.45844399     3.22611498    -0.62194134     0.32856037    -0.39794135
O       2.99825803     7.85215201     1.39328602    -0.03742551    -0.29247518     0.26649288
O       2.95600798     3.34895802     1.48830498     0.21325637    -0.00527385    -0.22738768
O       5.91462000     7.84867098     1.39862902     0.20598658    -0.06376518     0.19212601
O       5.86039901     3.35253902     1.45617599     0.54791900    -0.22014153     0.07884162
