# total energy = -4988.49401400 eV

CRYSTAL
PRIMVEC
        3.77367361     0.00000000     0.00000000
       -0.00000762     3.41427651     0.00000000
       -1.88686343    -1.70717252     4.59820715
PRIMCOORD
6 1
Ti     -0.00016496     2.56083567     1.14955156    -0.00108629    -0.00373761     3.54365587
Ti      1.88696722    -0.85373159     3.44865504     0.00108629     0.00373761    -3.54365587
O       0.00003834     0.85356270     0.74901029     0.00091994     0.00413768     0.38773613
O       1.88676377     0.85354129     3.84919641    -0.00091994    -0.00413768    -0.38773613
O      -0.00001935    -0.85355076     3.04811377     0.00076927    -0.00013807     1.26097642
O       1.88682146     2.56065469     1.55009293    -0.00076927     0.00013807    -1.26097642
