# total energy = -19960.65681333 eV

CRYSTAL
PRIMVEC
        7.60600008     0.00000000     0.00000000
        0.00000000     7.60600008     0.00000000
       -1.89786986    -1.89786986     4.85670466
PRIMCOORD
24 1
Ti      3.82044400     6.49200799     1.20634903    -1.33312134     1.38218572     1.00379736
Ti      3.80642398     2.86046598     1.23559898    -0.43939449    -0.42044057    -0.34550703
Ti     -0.01370400     6.72898299     1.22833502     1.47060162     0.59744566    -0.12594014
Ti     -0.04001501     2.95526200     1.20769800     0.42748437    -1.43647304     0.69492882
Ti      5.70182724     2.87640020     3.68655782     1.16603711     0.05267215    -0.57995264
Ti      5.77239324    -0.95532380     3.60828282    -0.94706414     0.12521457     0.41594628
Ti      1.93653923     2.84858125     3.64498279    -0.85033149    -0.64600482    -0.96203568
Ti      1.90546324    -1.04087678     3.73085683     0.48213139     0.65565572    -1.30476798
O       3.55941298     4.72764299     0.68888199     0.82003592    -0.05237031     1.41190023
O       3.64641999     0.81729500     0.72557599     0.64551554     1.11540847     1.23844043
O       0.05768000     4.82166900     0.77790802    -0.23956494    -0.21523021    -0.62927156
O      -0.04407501     1.03198602     0.85316602     0.31306921    -0.94295398    -1.23730683
O       5.82753922     4.76536925     3.79361381     0.12548942     0.08459010     1.67460948
O       5.74330421     0.91401722     3.92556781    -0.52434043     0.68996196     1.06797751
O       1.79192022     4.67964021     4.05102780     0.16420356     0.15538005    -0.14261143
O       1.75456422     0.91272725     4.21729884     1.05354514    -0.27640115    -1.21967908
O       3.86181524     3.09476122     3.26256179    -0.57368403    -1.27493854     0.07291548
O       3.83180321    -1.06678578     3.25859683    -0.61958416     0.09560574    -0.38459707
O      -0.03983879     2.56500622     3.19270384     0.54878340     1.31561418    -0.79366487
O       0.03093020    -1.00812277     3.12902683    -0.27358193     0.26296379     0.25297093
O       5.69140700     6.64536801     1.54346197    -0.01674792    -0.06304862     0.19290506
O       5.73195902     2.98877199     1.53023302    -0.94049240    -0.09501464     0.13098361
O       1.89155398     6.71475600     1.60628701     0.11631701    -0.26891127     0.26172297
O       1.94834401     3.05124301     1.74822600    -0.57530691    -0.84091148    -0.69376385
