# total energy = -4985.84273203 eV

CRYSTAL
PRIMVEC
        2.70064309     0.00000000     0.00000000
        0.21144323     4.22621675     0.00000000
       -0.00000117    -0.00005492     4.23282676
PRIMCOORD
6 1
Ti      1.45604248     2.11308077     2.11641328     0.00000000     0.00000000     0.00000000
Ti      0.00000000     0.00000000     0.00000000     0.00000000     0.00000000     0.00000000
O       1.39152841     0.82361659     0.82491553    -1.09881431     1.53455372     1.55079410
O       1.52055649     3.40254496     3.40791098     1.09881431    -1.53455372    -1.55079410
O       0.06451348     1.28944192     2.94132967     1.09870504    -1.53520035     1.55151812
O       0.14692848     2.93671981     1.29149684    -1.09870504     1.53520035    -1.55151812
