# total energy = -4964.13240238 eV

CRYSTAL
PRIMVEC
        4.94409246     0.00000000     0.00000000
       -0.00000700     2.66220396     0.00000000
       -2.47207368    -1.33116188     5.33369551
PRIMCOORD
6 1
Ti     -0.00021162     1.99674470     1.33342367    -0.01588377    -0.01839394    27.89191131
Ti      2.47222302    -0.66570247     4.00027142     0.01588377     0.01839394   -27.89191131
O       0.00005248     0.66554056     0.86881535     0.01382071     0.01661088   -19.54733043
O       2.47195882     0.66550157     4.46487984    -0.01382071    -0.01661088    19.54733043
O      -0.00002019    -0.66555861     3.53566311    -0.00184451    -0.00000411    -1.56113251
O       2.47203139     1.99660074     1.79803208     0.00184451     0.00000411     1.56113251
