# total energy = -19518.65025455 eV

CRYSTAL
PRIMVEC
        7.60600008     0.00000000     0.00000000
        0.00000000     7.60600008     0.00000000
       -1.89786986    -1.89786986     4.85670466
PRIMCOORD
23 1
Ti      3.76574898     6.63721502     1.10801900     0.36330395     0.38223936     1.89902418
Ti      3.80220897     2.75519998     1.16175102     0.25787531    -0.03837450     1.25180015
Ti     -0.03166401     6.74249299     1.20015601    -0.25245157    -0.04838767    -0.84007330
Ti      0.00865300     2.88470299     1.15236300     0.06939076    -0.20382094     0.59737033
Ti      5.64907425     2.91365322     3.67330484    -1.08702940    -0.05080425     1.09498285
Ti      5.70474020    -0.88948578     3.56803783    -1.18787427    -0.26681967     0.36624530
Ti      1.95050623     2.78552623     3.74591383     1.25730925    -0.28363084    -0.01287660
Ti      1.86933324    -1.02083880     3.56555683     1.11022281     0.72417770    -0.01618459
O       3.91522102     4.69823200     0.84835098    -0.98952824    -0.42481453     0.52747589
O       4.02318800     0.88644302     0.68967697    -0.53648633     0.56653688     0.49352575
O       0.06950902     4.73081398     0.92952000     0.40172756     1.22150945    -0.37335594
O      -0.09614002     1.03817602     0.72172998    -0.00106778    -1.30748409     0.18449832
O       5.57320822     4.78697323     4.03063680     0.77971715    -0.13175906     0.36900255
O       5.72855821     0.99152725     4.11386379     0.59123773     0.03695088    -1.04644323
O       1.85513923     4.70291120     4.07346883    -0.44204016    -0.11791263    -1.27060983
O       1.97989525     0.87675923     4.13171283    -1.02878335     0.24068543    -0.06616942
O       3.82091624     2.67045722     3.47081183    -0.37103295     0.49061089    -0.86348243
O       3.78252321    -0.90122378     3.17507684    -0.27361099    -0.28146494    -0.55921874
O      -0.03783078    -0.92164177     3.21192080     0.67845858    -0.03135513    -0.05108218
O       5.71846902     6.60486298     1.53586098    -0.38023827     0.24501671     0.61669706
O       5.75894102     2.81348700     1.85616800     0.38219643     0.22811221    -1.32923203
O       1.85857200     6.98909101     1.53832001     0.57529020    -1.18651750     0.54421944
O       1.84890102     2.71123202     1.88029901     0.08341382     0.23730648    -1.51611350
