# total energy = -19957.60722292 eV

CRYSTAL
PRIMVEC
        7.60600008     0.00000000     0.00000000
        0.00000000     7.60600008     0.00000000
       -1.89786986    -1.89786986     4.85670466
PRIMCOORD
24 1
Ti      3.84382898     6.67088599     1.31880099    -3.92328608     2.47457638     0.64523040
Ti      3.72798800     2.96714600     1.33212901    -0.56139596    -1.19907966    -1.55344928
Ti      0.02724199     6.39820101     1.13572101     1.66677661     2.56991395     1.88791881
Ti      0.16823402     2.72014400     1.06602598     0.03363390    -1.34417220     1.44900486
Ti      5.77064023     2.76417123     3.52705083     1.02510590    -0.79559834    -1.11019581
Ti      5.67853423    -1.07794178     3.62597480     0.65946327     0.54785678     1.81648917
Ti      1.88726124     3.07230522     3.81242882    -0.94463651    -1.13727571    -2.60727518
Ti      1.77039424    -0.81826980     3.72362181    -0.24621510     0.72984158    -1.20571542
O       3.23940701     5.03068698     0.77538099     2.38563443    -0.80580537     0.08899851
O       3.54762201     1.08651398     0.88907102     0.64488048    -0.44941512    -0.86942246
O       0.07733698     4.67870700     0.81860800    -0.68927162    -1.83979443    -1.01456668
O       0.47816800     0.81108098     0.79457599    -2.27967229     1.61034036    -1.55569051
O       5.93881425     4.57068420     4.10362082    -1.07626573     0.69693402    -1.56724762
O       5.85367725     0.83435822     3.84242179    -0.60766940     0.48804107     1.44699117
O       1.90101625     4.92945420     3.71031179     0.00575824    -0.53188945     2.44569517
O       1.80756222     1.24075825     4.06955181     0.88950072    -2.71674996     1.54113472
O       3.82214620     2.80272624     3.23061880     0.31608357     0.72494363     0.59283362
O       3.62301723    -0.89387176     3.35978584     2.54755743    -0.02759540    -0.41947589
O       0.18973222     2.63718425     3.03530382    -2.95015377     0.91585068     0.49713506
O      -0.18507779    -1.13717979     3.03741079     1.65126899     0.30334195     1.49803864
O       5.58395698     6.66223902     1.71699301     0.58618706    -0.52438954    -1.90901627
O       5.70105501     2.76919000     1.57843302     0.34599374     0.57923736     0.21233232
O       1.87964003     6.72038502     1.74383298    -0.97705350     0.14261915     0.20439763
O       1.87228801     3.11844402     1.61888000     1.49777562    -0.41173224    -0.51414498
