# total energy = -19514.31257856 eV

CRYSTAL
PRIMVEC
        5.93400000     0.00000000     0.00000000
        0.00000000     9.29699974     0.00000000
        0.00000000     0.00000000     4.64899994
PRIMCOORD
23 1
Ti      4.41863798     7.09014302     2.13898302     0.15755469     2.11619944     0.50158925
Ti      4.51889299     2.20787100     2.36484201    -2.73615794    -0.67470374    -0.31409533
Ti      1.57380600     6.80706198     2.48673497    -0.88327197     1.37026325    -2.01029026
Ti      1.29004402     2.44678098     2.36748599     2.22218395    -1.12364166    -1.57256595
Ti      3.09222398     4.58597398     0.39634498    -1.05439051     0.28371208     0.51613578
Ti      2.92393497     9.25831699     4.44750401     1.59193408    -0.71087146     0.97978813
Ti      5.83725698     4.68809699     4.31753300     0.79097087     0.56012917     0.81223364
Ti      0.07478201     9.27758799     0.10278501    -1.41013825     0.28806830     0.82319837
O       4.67675900     5.87815598     0.61670798    -1.25091954    -2.02113852    -0.55025202
O       4.36379002     0.60249899     0.72687200     1.15964046     3.36575321     3.16210891
O       1.59128901     5.71826100     0.92563002     0.32342484    -0.03972664    -0.26031452
O       1.57701599     1.10704198     0.94787499    -1.13906957    -1.12716253     0.04345372
O       4.55579199     8.35475102     3.64840699    -1.10655590    -1.09161573    -0.24273254
O       4.34804901     3.67873901     3.80330501     0.84515638     0.67779961    -0.50943677
O       1.38392398     8.36714499     3.77510002     0.30872198    -1.47131510    -0.77296800
O       1.63629300     3.81652899     4.10117200    -1.49444450    -0.20286269    -3.02969987
O       3.12187103     1.42514001     3.45669100    -0.67224165     1.38807072    -2.66214845
O       5.80151302     5.94365902     2.82968702     1.24811652    -1.40912421     2.28022688
O       5.93025999     1.41994798     3.27723699     0.21827183     0.58455080    -0.28112195
O       2.87448701     8.00800398     1.45364303    -0.38894095    -1.84849170     1.10377294
O       2.90155797     3.16260000     1.57398598     1.21757026     1.06914531     0.19647426
O       5.78449399     8.06961000     1.48809299     2.03691096    -0.23973309    -0.46183381
O       5.83221001     3.12769700     1.23299802     0.01567448     0.25669492     2.24847786
