# total energy = -19517.67875098 eV

CRYSTAL
PRIMVEC
        5.93400000     0.00000000     0.00000000
        0.00000000     9.29699974     0.00000000
        0.00000000     0.00000000     4.64899994
PRIMCOORD
23 1
Ti      4.45419900     7.02601399     2.24544999     1.11107899     0.42686242     0.37682668
Ti      4.44579101     2.27928199     2.31033702     0.96521948    -0.79556286    -0.02663458
Ti      1.42432502     7.14387801     2.25036901    -1.13593180    -0.38453459     0.10830545
Ti      1.47806001     2.30669998     2.36742101    -0.93764182    -0.79705410    -0.18951326
Ti      3.05018598     4.49995998     0.16905901    -0.22653587     0.21470082    -0.30680780
Ti      2.95538699     9.25587002     4.53882498     0.62288057     0.06664559     0.72384937
Ti      0.05143598     4.62312900     4.63552000     0.27374160    -0.33365192    -0.44659179
Ti      0.03261198     0.08136201     0.05136898    -1.08853529     1.11189223     0.40290461
O       4.52025001     5.51049299     0.93049501    -1.17302511     0.45551635    -0.41385160
O       4.27928401     0.87076799     0.92301102     0.97480481     0.49029439     0.26826952
O       1.61899499     5.57899599     0.81226702    -0.30136014     0.75194845     0.41964867
O       1.56417598     0.94548602     0.96841400    -0.92851286    -0.40329388    -0.59755031
O       4.49187399     8.38697903     3.71226001    -0.58191388    -0.47473458     0.49137373
O       4.53341398     3.67596300     3.72783301    -1.00205466     0.65721792    -0.01415676
O       1.30588700     8.30227600     3.96940200     1.49000600    -1.09796327    -1.81942871
O       1.37430898     3.80865398     3.58433300     1.42731528     0.24968455     0.76126613
O       2.87294002     1.27775398     3.24777002     0.42867016     1.22847997    -0.53893222
O       5.89933302     6.12162202     3.03496398     0.38651614    -1.00008751     1.39603292
O       5.92817799     1.40970502     3.30451301    -0.13518583     0.14163236    -0.47101959
O       2.94024602     8.01755801     1.54912999    -0.28001509    -1.30529994     0.10181958
O       2.95531799     3.20651399     1.43089899     0.21648465     0.07284144     0.09492234
O       5.86928898     8.00357302     1.49161202     0.28161818     0.14135288    -0.26482475
O       0.00335101     3.11058600     1.33165201    -0.38762351     0.58311304    -0.05590789
