# total energy = -19074.70997179 eV

CRYSTAL
PRIMVEC
        5.17600016     0.00000000     0.00000000
        0.00000000     5.50899976     0.00000000
        0.00000000     0.00000000     9.26300011
PRIMCOORD
22 1
Ti      1.84765401     3.39048198     3.28206399     0.35508645     0.14574458    -0.81346932
Ti      3.57143001     2.26715700     5.90833200     0.60265703     0.53151021    -0.18245738
Ti      4.43411900     2.26697200     1.19461500    -0.48992260    -0.25523402    -1.11918954
Ti      0.72658201     3.23720801     8.09645500    -0.45297121    -0.03417589     1.26979068
Ti      1.75120903     0.46756001     1.30986398     0.62341896     0.85880328    -1.12310533
Ti      3.18192000     4.98657598     8.04327200     1.04791390     0.59590660     1.87020416
Ti      0.66742698     0.21776602     5.97113502     0.53393142     1.18736185    -0.68510000
Ti      4.38962700     5.02300300     3.44131898     0.60637999    -0.02312837    -0.04028740
O       3.44600701     3.52492401     4.40692702     0.01263415    -0.46120594     1.73736241
O       0.95721402     1.97970099     0.19886698    -0.89789743     0.22673744    -0.21973067
O       4.28322099     3.80313302     9.19516498    -0.02453065    -0.81165257    -0.95640959
O       3.50608102     0.82144301     0.22050001    -0.25874152     0.07767743    -1.97093822
O       1.63437701     4.76911699     9.11444799    -0.82569672    -0.07960653    -0.68615184
O       4.67333998     1.09433802     4.74799102    -1.41109676    -0.69254386    -0.59305242
O       1.03515902     4.86687698     4.30372200    -0.21022530    -1.19079813     1.21284355
O       0.14278700     3.56683601     2.40633602    -0.17859172    -0.74639255     0.46049837
O       0.00448001     1.91763400     6.89728199    -0.27635873     0.01238295     0.23151044
O       2.65788402     1.95224902     2.13897598     0.17440648     1.02910191     1.80322484
O       2.41242198     3.34344701     7.31027202     0.67794796    -0.16584444    -1.89143428
O       0.03838101     0.67534500     2.09863903     0.22376011     0.07360223     0.71482814
O       2.45628299     0.76798701     6.32357098    -0.15307377    -0.92225556     0.97629143
O       2.75483802     4.66503402     2.30579700     0.32096995     0.64400964     0.00477223
