# total energy = -19518.34799540 eV

CRYSTAL
PRIMVEC
        7.60600008     0.00000000     0.00000000
        0.00000000     7.60600008     0.00000000
       -1.89786986    -1.89786986     4.85670466
PRIMCOORD
23 1
Ti      3.76482901     6.74078401     1.25832698     0.87349791    -0.12514566     0.25426651
Ti      3.73556598     2.93935901     1.18911801     1.11610113     0.03657987     0.63684681
Ti     -0.03041700     6.57592402     1.23605503    -0.62702005     0.30104338    -0.78165319
Ti     -0.03199199     2.82032598     1.12784299    -0.20252459    -0.07707193    -0.40259145
Ti      5.69277424     2.74972623     3.56940882    -0.70744624    -0.78720883     0.06071637
Ti      5.72960921    -1.12354676     3.61260281    -1.52911095     0.91055909     0.64014348
Ti      2.00959024     2.94487621     3.67058481     1.12845143    -0.41068657    -0.07905014
Ti      1.86096721    -0.94446275     3.67031779     1.15607023     0.42211719     0.42816700
O       4.16385500     4.75990698     0.67182301    -1.16267616     0.59801696     2.24069744
O       3.82741099     0.99409598     0.81896498    -0.91087123     0.26607199     0.02427457
O      -0.19463700     4.68710399     0.69747001     0.69890246     1.29192608     1.22700930
O       0.06100101     0.93706401     0.73522802     0.25513760    -1.29101077     0.27689609
O       5.67125022     4.61728323     3.94735182     0.76569100     1.28007098     0.90684616
O       5.60382822     0.88794122     4.03127282     0.83166733     0.17828807    -0.38965571
O       1.91848222     4.79190521     4.15615283    -0.70651704     0.06823942    -0.55984481
O       1.98432923     0.99935521     4.12036780    -1.10758306    -0.58157707    -1.03841110
O       3.87864720     2.93918422     3.30292479    -1.45570490    -0.28273609    -1.56818453
O       3.75659125    -0.99590079     3.30919983    -0.32051718    -0.21345306    -0.82437363
O      -0.05471979    -1.11255776     3.32820581     1.16124123     0.33907567    -1.36870979
O       5.63919800     6.92672298     1.65131698     1.39771545    -1.06995392     0.35101150
O       5.72968001     2.73372899     1.61837702     0.86164409     0.06025742     0.37570465
O       1.87842498     6.67141803     1.62456998    -0.76170811    -0.32993848     0.31177517
O       1.89885800     3.15643699     1.71801702    -0.75444037    -0.58346400    -0.72188042
