# total energy = -19920.64824785 eV

CRYSTAL
PRIMVEC
        6.34227891     0.00000000     0.00000000
        0.33732909     6.74166856     0.00000000
        0.00000000     0.00000000    11.35483411
PRIMCOORD
24 1
Ti      2.49867188     3.99510638     4.21256247    -0.00051319    -1.13700189     0.68519205
Ti      4.18093585     2.74656193     7.14227177     0.00051319     1.13700189    -0.68519205
Ti      5.60723403     2.74656423     1.46480928     0.09634287     0.64475295    -0.58445825
Ti      1.07237377     3.99510433     9.89002509    -0.09634287    -0.64475295     0.58445825
Ti      2.33000747     0.62427236     1.46485478    -0.00051319    -1.13700189    -0.68519205
Ti      4.34960027     6.11739614     9.88997959     0.00051319     1.13700189     0.68519205
Ti      0.90370935     0.62426986     7.14222620    -0.09634287    -0.64475295    -0.58445825
Ti      5.77589845     6.11739864     4.21260804     0.09634287     0.64475295     0.58445825
O       2.12615052     2.37385600     5.79428493     1.51587105     1.48668490    -0.14022031
O       4.55345721     4.36781230     5.56054931    -1.51587105    -1.48668490     0.14022031
O       1.28258584     2.37388321     0.11690437    -1.29866495     1.10591853     0.17413060
O       5.39702196     4.36778516    11.23792954     1.29866495    -1.10591853    -0.17413060
O       4.38479279     0.99697808     0.11686755    -1.51587105    -1.48668490    -0.14022031
O       2.29481494     5.74469022    11.23796636     1.51587105     1.48668490     0.14022031
O       5.22835754     0.99695094     5.79432182     1.29866495    -1.10591853     0.17413060
O       1.45125013     5.74471749     5.56051242    -1.29866495     1.10591853    -0.17413060
O       0.43561233     4.10066483     3.06722402     0.48075713     0.06423775     0.59352293
O       6.24399547     2.64100347     8.28761028    -0.48075713    -0.06423775    -0.59352293
O       3.53372486     2.64094066     2.61022920     0.52250209     0.61754090    -0.08093579
O       3.14588294     4.10072765     8.74460484    -0.52250209    -0.61754090     0.08093579
O       0.26694791     0.72983062     2.61019297     0.48075713     0.06423775    -0.59352293
O       6.41265988     6.01183768     8.74464108    -0.48075713    -0.06423775     0.59352293
O       2.97721853     0.72989343     8.28764645    -0.52250209    -0.61754090    -0.08093579
O       3.70238927     6.01177487     3.06718772     0.52250209     0.61754090     0.08093579
