# total energy = -19071.38236214 eV

CRYSTAL
PRIMVEC
        7.60600008     0.00000000     0.00000000
        0.00000000     7.60600008     0.00000000
       -1.89786986    -1.89786986     4.85670466
PRIMCOORD
22 1
Ti      3.82728002     6.68154902     1.48831498     1.95105845     0.34444413    -2.34650429
Ti      3.44495099     2.80999798     0.91921200     2.28955227    -0.16625016     1.14864668
Ti     -0.21353699     6.54621702     1.19799702     1.33602129     0.35421124     0.54922512
Ti     -0.05614698     2.95274402     1.19533002    -1.36232934    -0.40171265    -0.55100818
Ti      5.43970321     2.95284324     3.46503279    -0.33879773    -1.75165878    -0.48305544
Ti     -1.16481576    -0.44034178     3.87400282    -1.75033903    -0.54845790     1.60496855
Ti      1.79243124     2.85749524     3.68499484     5.36018926    -0.22175207     3.18578312
Ti      1.96974325    -1.14437575     3.71296381    -0.25468072     1.17233349     0.31601261
O       4.02263601     4.62832901     0.66646498    -1.84510839     1.02634105     1.18228957
O       3.94043399     0.99800099     0.76849703     0.07093188    -2.65362139     2.57271954
O       0.46545600     4.61701102     0.79538600    -0.63068233     1.03769814    -0.13923840
O      -0.19793600     0.88874001     0.70349602     0.74160207    -0.94245698     0.52270264
O       5.08429824     4.47697723     4.32147479    -0.60909302     0.49901326    -1.09482601
O       5.19876822     0.89296121     3.81761084     1.44254779     1.56610271     0.33368329
O       2.19937125     4.70666820     4.34641682    -0.85736681    -0.05104362    -1.02914433
O       2.45152622     0.80397423     4.14286879    -1.61005651    -0.01997028    -1.95404556
O       3.55192623     2.78075422     2.95767283    -0.20026356     0.68287497    -1.57161953
O       0.16843622     2.93948924     3.15367384    -2.91917813    -0.32552723    -1.22715714
O       5.76096402     6.36354699     2.31798802     0.08083448     0.23967961    -1.66064864
O       5.76334198     3.24678099     1.67060602     0.23027605    -0.76574397     0.64761125
O       2.04726798     6.46636200     1.82251698    -0.76697553     0.49087880    -0.10107962
O       1.76153200     2.40583198     0.42311600    -0.35814220     0.43461815     0.09468477
