# total energy = -19519.21806074 eV

CRYSTAL
PRIMVEC
        7.60600008     0.00000000     0.00000000
        0.00000000     7.60600008     0.00000000
       -1.89786986    -1.89786986     4.85670466
PRIMCOORD
23 1
Ti      3.74479599     6.61507203     1.27938099    -0.21371120     0.35656663    -0.72926257
Ti      3.77101900     2.80527899     1.18985700    -0.07468518    -0.05381475     0.84446861
Ti     -0.10772599     6.66523798     1.11561502     0.57855268    -0.03122914     0.19275722
Ti     -0.01978102     2.81577601     1.19236901     0.44518719     0.00017355     0.21594755
Ti      5.68710521     2.79252920     3.70549580    -0.39233969     0.98920274    -0.86777875
Ti      5.75610723    -0.93049776     3.61245183    -0.49960075    -0.49807840     0.18195447
Ti      2.09330624     2.86911724     3.70595179    -0.13615565     0.36475149    -0.47174438
Ti      1.83339523    -0.95055279     3.57997882     0.46026260    -0.33108648     0.52970350
O       3.85495398     4.75014202     0.84108300     0.14554738    -0.28428210     0.00539418
O       3.50505002     0.98417502     0.80169898     0.53748469    -0.12999914    -0.30934985
O      -0.16987802     4.72058699     0.75035699     0.00041678     0.93768810     1.08909939
O       0.14884200     0.87908301     0.71591300    -0.18339043     1.07869516     0.29940225
O       5.84225125     4.74491925     4.01089780     0.08635953    -0.29809150    -0.30958202
O       5.75096421     0.97615523     4.17034780     0.18964335    -1.01311169    -1.68724877
O       1.86358421     4.68342520     4.12519982    -0.31306458     1.31055862    -0.48977039
O       2.09692724     0.96433224     4.04881182    -0.60457456    -0.56067245    -0.03208507
O       3.88286622     3.00749921     3.19443382    -0.31107532    -0.45422617    -0.28712600
O       3.77601523    -1.06076776     3.17863979     0.23297211     0.13725531     0.82307753
O      -0.03990780    -0.85874376     3.14357983     0.62391492    -0.17333510     0.29207177
O       5.68950403    -0.61308201     1.63556099    -0.37069254    -0.75556445    -0.39575077
O       5.80286798     2.69346003     1.68422598    -0.24293103    -0.08860436     0.21676336
O       1.85151600     6.56656102     1.61967599    -0.16092206    -0.12224546     0.30503733
O       1.82497300     3.01284501     1.67066899     0.20280175    -0.38055066     0.58402116
