# total energy = -19942.30551950 eV

CRYSTAL
PRIMVEC
        5.84195869     0.00000000     0.00000000
        1.53051873     6.02629191     0.00000000
        0.00000000     0.00000000    10.53975740
PRIMCOORD
24 1
Ti      3.02441309     3.57117518     3.91017502     0.17365057    -2.04511278     0.88600865
Ti      4.34806450     2.45511712     6.62958297    -0.17365057     2.04511278    -0.88600865
Ti      5.66184741     2.45511921     1.35966190    -0.59166839    -0.52424967     0.06559144
Ti      1.71063020     3.57117333     9.18009622     0.59166839     0.52424967    -0.06559144
Ti      2.25915385     0.55802927     1.35970415     0.17365057    -2.04511278    -0.88600865
Ti      5.11332376     5.46826327     9.18005396    -0.17365057     2.04511278     0.88600865
Ti      0.94537085     0.55802696     6.62954072     0.59166839     0.52424967     0.06559144
Ti      6.42710676     5.46826552     3.91021728    -0.59166839    -0.52424967    -0.06559144
O       2.38793848     2.12195996     5.37835778     1.60884372     1.89520815    -0.66317645
O       4.98453905     3.90433235     5.16140022    -1.60884372    -1.89520815     0.66317645
O       1.61092457     2.12198428     0.10851274    -0.54412276    -0.04222087     0.92553680
O       5.76155309     3.90430814    10.43124496     0.54412276     0.04222087    -0.92553680
O       4.21927978     0.89118627     0.10847854    -1.60884372    -1.89520815    -0.66317645
O       3.15319780     5.13510603    10.43127916     1.60884372     1.89520815     0.66317645
O       4.99629382     0.89116199     5.37839197     0.54412276     0.04222087     0.92553680
O       2.37618371     5.13513038     5.16136602    -0.54412276    -0.04222087    -0.92553680
O       1.14320012     3.66553249     2.84705158     0.38625954     1.36007731     1.39362790
O       6.22927740     2.36075982     7.69270641    -0.38625954    -1.36007731    -1.39362790
O       3.73279911     2.36070363     2.42286096     0.85073747     1.30726297     0.47713882
O       3.63967848     3.66558874     8.11689686    -0.85073747    -1.30726297    -0.47713882
O       0.37794086     0.65238640     2.42282729     0.38625954     1.36007731    -1.39362790
O       6.99453673     5.37390596     8.11693052    -0.38625954    -1.36007731     1.39362790
O       2.87441921     0.65244259     7.69274002    -0.85073747    -1.30726297     0.47713882
O       4.49805837     5.37384971     2.84701792     0.85073747     1.30726297    -0.47713882
