# total energy = -4985.76896588 eV

CRYSTAL
PRIMVEC
        3.66401370     0.00000000     0.00000000
        0.00000000     3.09128625     0.00000000
        0.00000000    -0.00006983     4.85288236
PRIMCOORD
6 1
Ti      1.83200675     1.54560816     2.42644133     0.00000000     0.00000000     0.00000000
Ti      0.00000000     0.00000000     0.00000000     0.00000000     0.00000000     0.00000000
O       1.83200675     0.60243254     0.94575534     0.00000000    -1.89789341    -1.20925377
O       1.83200675     2.48878383     3.90712727     0.00000000     1.89789341     1.20925377
O       0.00000000     0.94314779     3.37219760     0.00000000     1.89665697    -1.20931548
O       0.00000000     2.14806853     1.48068506     0.00000000    -1.89665697     1.20931548
