# total energy = -19072.03446202 eV

CRYSTAL
PRIMVEC
        5.93400000     0.00000000     0.00000000
        0.00000000     9.29699974     0.00000000
        0.00000000     0.00000000     4.64899994
PRIMCOORD
22 1
Ti      4.46154102     7.15949000     2.20626997     0.84919095    -1.87454444     0.06093671
Ti      4.33668202     2.32078499     2.26393902    -0.38134668     0.18765975    -0.06316303
Ti      1.59566801     7.06072701     2.53437998    -0.74236723    -1.67681574     1.02280810
Ti      1.50594601     2.45574598     2.27965199    -0.44740348     0.04295441     0.22932860
Ti      2.97144700     4.77896498     4.60058398     1.45449520     0.30321802     0.17097714
Ti      2.88797600     0.01915600     0.23708802    -0.83823034     1.09510858    -1.34149286
Ti      5.76351301     4.51759402     4.28933399     0.44631873     0.88098394     1.03368773
Ti      0.02949999     9.07787898     0.08055099    -0.89148459     0.17579616    -0.00143313
O       4.55334100     5.77071501     0.64791902    -0.76269130    -1.83099508     0.65509727
O       4.31396502     0.78373701     1.03608302     2.57785686     0.98861473     0.49160231
O       1.28391900     0.40302700     1.30459999     1.78104830     4.18813551     0.04159532
O       4.65514602     8.11623702     3.83510602    -1.21374498     1.94811248    -0.52314564
O       4.24252800     3.78101299     3.65077998     0.42621116    -1.05783682    -0.20184710
O       1.65442801     8.23579600     3.87190601    -0.92613330     0.62185033    -0.68633310
O       1.57166501     3.68966599     3.71409001    -0.66974614     0.60681734     0.57709666
O       3.30682398     5.97426801     3.02754402    -3.23969146     0.27268616     0.11486331
O       3.07618901     1.47854600     3.34842001    -0.25426908    -0.59202500    -0.19471589
O       5.91024799     6.07955200     3.31116598     1.93409970    -0.54377361    -1.83495638
O       2.87962601     7.86179601     1.38210498     0.70248375    -0.95422853     0.37976082
O       2.92734399     3.51224000     1.45455797     0.05742304    -0.67011946    -0.40416471
O       0.12717600     7.74403301     1.32312601     0.43248080    -1.42751480     0.98428165
O       0.08954700     3.36926901     1.43476801    -0.29449966    -0.68408442    -0.51078429
