# total energy = -19517.94453978 eV

CRYSTAL
PRIMVEC
        7.60600008     0.00000000     0.00000000
        0.00000000     7.60600008     0.00000000
       -1.89786986    -1.89786986     4.85670466
PRIMCOORD
23 1
Ti      3.75403501     6.71304099     1.24548301     1.73518752    -0.69259554    -1.76275001
Ti      3.69777002     2.82364700     1.07089902    -0.06743158     1.39344767     2.36551400
Ti      0.05058299     6.64334898     1.19670398    -1.24919485    -0.95379324     1.35893085
Ti      0.11437499     2.76904299     1.07841402    -0.27434067     1.41531825     0.18356398
Ti      5.57487624     2.87872424     3.61802381    -1.09610436    -1.17243222     1.94747896
Ti      5.64703321    -1.04423076     3.66807582     1.34149671     0.49961721    -1.79065883
Ti      1.87665123     2.92991224     3.69660282     1.64492351     1.39029987     2.14331301
Ti      1.94602325    -0.85874678     3.63293480    -1.61026914    -1.24121311    -0.00004062
O       3.92418602     4.79110198     0.86963598    -0.79734284    -0.51772781    -0.35914442
O       4.04606798     1.06123899     0.85674702    -0.03181433    -0.83034836    -0.91131988
O       0.16883501     4.64074700     0.86689299     0.12371227     1.49697163    -0.10062916
O      -0.22263699     0.97531098     0.76611102     0.26774887    -1.41980689    -0.45846309
O       5.72328623     4.68061723     4.11947783     0.29076436     1.05488725    -0.27716708
O       5.90227821     0.98255123     4.01364280    -0.27433912    -1.12077617    -0.07251593
O       1.83570524     4.81018522     3.98467379    -0.34544275    -0.30585726     0.55184790
O       1.59119323     1.04240123     4.04229680    -0.12001940    -0.71206651     0.36839063
O       3.78733121     2.86855123     3.31537781    -0.31635971    -0.06981242    -0.26837416
O       3.71870824    -1.19625878     3.10789381     0.83665219     0.90047034     1.41825368
O       0.03618821    -1.06926079     3.19198579     0.09035220     0.35517669     0.09835990
O       5.71908001     6.61753402     1.67442001     0.09538745     0.14679899     0.09824883
O       5.97616601     2.86169399     1.93147400     0.55028544     0.23044600    -2.25320766
O       1.93587903     6.90324100     1.44422902    -0.82448933     0.01774962     0.97482101
O       1.82810203     2.57000102     1.92670801     0.03063753     0.13524625    -3.25445294
