# total energy = -39035.89525669 eV

CRYSTAL
PRIMVEC
        7.60600008     0.00000000     0.00000000
        0.00000000     7.60600008     0.00000000
       -3.79573973    -3.79573973     9.71340985
PRIMCOORD
46 1
Ti      1.88923946     4.84806447     6.26048062     0.45776246    -0.37848015     0.72765357
Ti      3.73242298     6.73591399     1.36126699     0.02129748     0.30605626     0.11718938
Ti      1.91804745     0.69515444     6.02426060    -0.43234221     1.50039635     0.38198971
Ti      3.76015801     2.74782801     1.10982598     1.09208650    -0.50914521    -0.68645523
Ti     -1.87894358     4.74468345     6.21811961    -0.48458371     0.34052526    -0.86881799
Ti     -0.07297100     6.75649401     1.33449702    -0.19335423    -0.31114294    -1.26206194
Ti     -1.90394154     0.99739143     6.07133864     1.14752979     0.28114484    -0.61232516
Ti      0.06819899     2.95990702     1.07083001    -0.85012966     0.62789191    -2.88189481
Ti      3.88000343     1.08061847     8.34746361    -0.23199895    -0.96795668     2.23514437
Ti      5.71555500     2.86701402     3.43264301    -1.60865346     0.38857148     0.11737373
Ti      3.80960047    -2.88014556     8.56272361    -0.35194404     2.09756047    -0.41162066
Ti      5.76661198    -0.91787498     3.72669501    -1.58639746    -0.65034253     0.05254874
Ti      0.07006545     1.06097647     8.45996961     0.07728482    -2.26960128    -1.29920102
Ti      1.77543698     2.74080102     3.44757100     2.12192528    -0.35690088     0.56658110
Ti     -0.00136454    -2.98180956     8.57827861    -0.31146021     0.90811012     0.71848065
Ti      1.93165497    -1.26750398     3.66460500    -0.38723245     2.26846613    -0.40478409
O       1.62589043    -1.04375656     5.76479462     0.13481019     0.65717524    -1.24216982
O       3.40630099     0.88604502     0.94110300     0.68721911     0.84550065    -1.70905816
O      -1.94555657     3.03111543     5.75462061    -0.18485596    -2.60972364    -0.85591876
O       0.00297900     4.83429898     0.75485902    -0.49630151    -0.28966573    -0.37208685
O      -1.84666757    -0.86310857     5.64224061     0.41413417    -0.84701297     0.24932382
O      -0.02776000     1.03958199     0.77185302     0.38446105    -1.21630785     0.84099324
O       3.83014747     2.96149243     8.99342764    -0.28178967    -2.21837357    -0.71396167
O       5.57861102     4.73862299     4.00384202     0.57035780    -0.00004294    -0.32655773
O      -3.43275054    -1.00550054     8.81805565    -1.06106407     1.54702049     0.58079699
O       5.69044998     0.95519399     3.98105300     0.11939308     2.11727544     0.76394959
O       0.17487943     2.74303044     9.11772460    -0.07912419     0.85622395    -0.61440364
O       1.81808999     4.62957099     4.34166401     0.29949172    -2.04910442    -2.19131424
O       0.03772647    -0.83148955     8.88361362    -0.29856252    -0.15287836     0.39401502
O       1.90167798     0.94977998     4.04647899    -0.39124491     0.86935226     0.48217098
O       2.01363744     0.94887746     8.02087462    -0.68555200     0.19515657    -0.21498776
O       3.83946199     2.79471502     3.00799901    -0.08368764     0.48694655     1.44187416
O       1.83882443    -2.61177353     8.18974763     0.53382009    -1.06859818     0.62253733
O       3.73875501    -0.72030702     3.25548400    -0.16036491    -1.57745156     0.64152981
O      -1.87572454     0.89255443     8.08542663     0.55063177     1.18549266    -0.80702844
O       0.00789400     2.82588499     2.93188898    -0.87635132     0.03585430     2.31578988
O      -1.93932757    -3.06883355     8.12580063     1.51022619     0.31342299    -0.24779119
O      -0.08336399    -0.83970597     3.33167700     1.95435306    -0.63913920    -0.75516876
O       3.75845745     4.93184645     6.51204460     0.37448337    -0.67892884     0.20548444
O       5.67327098     6.79514602     1.51152301    -0.21211815    -0.59209905     1.09955710
O       3.83599345     0.77370244     6.38243264    -0.44646297     0.87484466     0.09674551
O       5.67932901     2.76890398     1.30127199     0.14747956     0.71625587     1.51223499
O       0.05867745     4.60107247     6.54654564    -1.25325539    -0.30117528     0.56105348
O       1.82487299     6.45690402     1.62918102     0.65945555    -0.39824166     1.30631629
O       0.03414447     1.12345045     6.43935861     0.33246973     0.09637964     0.06605115
O       1.94036100     2.98105802     1.51869198    -0.64184066     0.56668883     0.38022208
