# total energy = -19516.12868196 eV

CRYSTAL
PRIMVEC
        5.17600016     0.00000000     0.00000000
        0.00000000     5.50899976     0.00000000
        0.00000000     0.00000000     9.26300011
PRIMCOORD
23 1
Ti      1.91313298     3.18974600     3.44286402    -0.13902500    -0.10781462     3.18253658
Ti      3.40616600     2.15621298     5.77310202     0.54083072     1.41747772    -1.84148647
Ti      4.23749002     2.35251800     1.54482302     1.38981007    -1.66185834    -2.19903655
Ti      0.85581900     3.31641600     7.74442200    -1.60306542     0.75101823     0.65630878
Ti      1.92450600     0.17875401     1.40792502    -0.42110829     0.86145358    -0.97749239
Ti      3.15011703     5.04158501     8.10040102     1.69004253     1.57996739    -1.50845881
Ti      0.83326901     0.51251600     5.94798700    -0.67176754    -0.31516286    -2.40857665
Ti      4.59067001     5.13270298     3.23139500     0.40223278    -0.11710428     3.46997008
O       1.75461201     1.86809899     4.95868500    -0.83822596     0.83207305    -2.47103340
O       3.40865001     3.63190598     4.55139500     0.84001005    -0.47489064     0.46348831
O       5.13428702     2.54870698     9.18162302    -0.10096674     0.92207995    -0.07054107
O       3.38189100     0.66446798     0.33358302     0.13107077     0.19321770    -0.39407261
O       1.64147698     4.64056798     9.03769898    -1.54101876    -0.39905516     1.74703465
O       4.31284602     0.95279999     4.54595601     0.17587509    -0.87639838     0.23798602
O       1.03005997     4.79949102     4.17808903    -0.56569381     0.53319377     1.97035587
O       0.21724599     3.32890501     2.50900498    -0.34031494     0.80613910    -0.23395093
O       5.12165800     2.15120601     6.57883201     0.47298546    -0.19977299     0.90697420
O       2.62250699     1.81291802     2.31684500    -0.86402442     0.33881701    -0.06062046
O       2.63193200     3.46118599     7.14454397     0.14417878    -1.01318703     0.08560003
O       0.09975901     0.78388201     1.97319899     1.02829381    -0.36896732    -0.54362885
O       4.96957700     4.92526402     7.11477701     0.28542135    -0.86331017     0.59465267
O       2.52911498     0.79752002     6.84567498    -0.39068518    -1.25809575     1.53461363
O       2.87788401     4.59316698     2.51656401     0.37514492    -0.57981920    -2.14062261
