# total energy = -19930.09128517 eV

CRYSTAL
PRIMVEC
        4.73646219     0.00000000     0.00000000
        1.47905388     4.81916621     0.00000000
        0.00000000     0.00000000     8.57639950
PRIMCOORD
24 1
Ti      2.59322567     2.85583346     3.18178304     3.89857623    -2.03213667     0.82918056
Ti      3.62229032     1.96333286     5.39461650    -3.89857623     2.03213667    -0.82918056
Ti      4.68746107     1.96333452     1.10638246    -7.18347695     1.01062672     2.83683647
Ti      1.52805499     2.85583198     7.47001718     7.18347695    -1.01062672    -2.83683647
Ti      1.85369884     0.44625043     1.10641685     3.89862096    -2.03293346    -0.83516944
Ti      4.36181717     4.37291603     7.46998279    -3.89862096     2.03293346     0.83516944
Ti      0.78852806     0.44624863     5.39458211     7.18359702    -1.01088846     2.84419265
Ti      5.42698795     4.37291783     3.18181743    -7.18359702     1.01088846    -2.84419265
O       2.01992018     1.69691038     4.37647102    -2.46832577    -1.18018641    -1.05440980
O       4.19559582     3.12225599     4.19992853     2.46832577     1.18018641     1.05440980
O       1.38994458     1.69692982     0.08829886     2.15076844    -1.03137322    -1.29472267
O       4.82557148     3.12223658     8.48810045    -2.15076844     1.03137322     1.29472267
O       3.45606896     0.71267282     0.08827103     2.46899606     1.18079551    -1.05438460
O       2.75944703     4.10649355     8.48812827    -2.46899606    -1.18079551     1.05438460
O       4.08604462     0.71265342     4.37649884    -2.15014238     1.03088497    -1.29438920
O       2.12947134     4.10651300     4.19990070     2.15014238    -1.03088497     1.29438920
O       1.07173105     2.93129011     2.31669947    -0.76387606    -3.16678549    -3.51921598
O       5.14378495     1.88787626     6.25970008     0.76387606     3.16678549     3.51921598
O       3.11972278     1.88783132     1.97152758     1.73212893    -3.63546203    -3.73129042
O       3.09579322     2.93133505     6.60487182    -1.73212893     3.63546203     3.73129042
O       0.33220414     0.52170695     1.97150018    -0.76366369    -3.16636974     3.52040306
O       5.88331181     4.29745942     6.60489922     0.76366369     3.16636974    -3.52040306
O       2.35626636     0.52175188     6.25972742    -1.73142625     3.63496143    -3.73201702
O       3.85924964     4.29741449     2.31667207     1.73142625    -3.63496143     3.73201702
