# total energy = -19072.90302461 eV

CRYSTAL
PRIMVEC
        7.60600008     0.00000000     0.00000000
        0.00000000     7.60600008     0.00000000
       -1.89786986    -1.89786986     4.85670466
PRIMCOORD
22 1
Ti      3.41509100     6.99421303     1.13643201     1.39335742    -0.12019295    -0.68373937
Ti      4.08587799     3.14697202     1.16998201    -0.24852781    -1.45136359     0.46344126
Ti     -0.21474198     6.46981901     1.01485999     0.20531500    -0.30573976     0.11908197
Ti      0.24891598     2.50155199     1.29347398    -0.14562837     1.55301271    -0.08938366
Ti      5.93861623     2.74247523     3.61423283     0.49873635    -0.07033641     0.31343662
Ti      5.48305224    -1.16480480     3.68305879    -0.69150102    -1.21985983    -0.80650034
Ti      2.18096821     2.98604123     3.67878182    -0.54026174    -0.11304065    -0.43251808
Ti      1.21910320    -0.54650177     3.67343681     1.99243960    -1.19778073     1.24337592
O       3.56634399     4.91506402     0.84686802     1.07163028     0.50651471    -1.11067558
O       3.94234300     1.17434401     0.74473602    -1.08834580     1.13168510     0.25028362
O       0.31306301     4.36220900     0.74797601    -0.59041961     0.04098340    -0.87570572
O       6.93787502     0.70540799     0.79487101     1.22045993     0.58796600     0.25463084
O       5.84054624     4.53069422     3.97906181     0.20209187     1.78218910     0.34038127
O      -0.58792275    -0.39322479     4.01097183     0.61629160     1.63622109     0.61720794
O       1.54069120     5.17950220     4.19994479    -0.10094155    -1.60685471    -2.59171871
O       2.13909420     1.10606422     3.95689479     0.38535863    -0.01775810     0.60483553
O       4.12634824     2.84123224     3.27309179    -1.41254018    -0.00064149     0.52413371
O       0.27824325     2.60825921     3.19346580    -1.04475762    -0.14076924    -0.32311580
O       5.13603098     6.71903599     1.83107399     1.12925155    -0.67037786     1.72892328
O       5.90453901     3.01793199     1.56744201     0.48703345    -0.19084997     0.26986360
O       1.68411200     6.76852099     1.79589201    -1.59985257     0.44723893     0.47027603
O       2.26054398     2.93877702     1.78404098    -1.73918893    -0.58024523    -0.28651484
