# total energy = -19960.63423100 eV

CRYSTAL
PRIMVEC
        5.93400000     0.00000000     0.00000000
        0.00000000     9.29699974     0.00000000
        0.00000000     0.00000000     4.64899994
PRIMCOORD
24 1
Ti      4.44407002     7.06143801     2.36327702     0.24806141    -2.03171115    -0.80185384
Ti      4.48030602     2.20230998     2.21468802    -0.60540015     1.55381155     1.27272533
Ti      1.43645101     7.00483901     2.43441199    -0.18876764    -2.19985571    -1.09133959
Ti      1.51902102     2.37342500     2.28553797     0.55271411     0.77052134     0.30618353
Ti      2.98863203     4.64946297     4.57504398    -0.88026480     0.61174229     0.70733337
Ti      2.97505302     9.22760900     0.03522998    -1.39326795     0.22400359     0.64979926
Ti      5.86435297     4.60123402     0.07289602     0.79340622     1.17348611    -0.19048359
Ti      0.00711500     0.00780902     4.60022700     1.16104223     0.59280045     0.38476393
O       4.39985700     5.66390899     0.90252699     0.57809605    -0.46815718    -0.48594459
O       4.46828999     0.87978300     0.94264100    -0.42607772    -0.55382971    -0.86061745
O       1.52705399     5.66276798     0.86600799    -0.41329702    -0.73986221     0.01089660
O       1.50934602     0.94811000     0.74097102     0.10398522     0.37995571     0.90256425
O       4.44535402     8.40406801     3.82126698    -0.17783196    -0.19334934    -0.59480437
O       4.50100198     3.65519501     3.84942799    -0.25460358     0.24261555    -0.35708882
O       1.44067601     8.38829398     3.78963800     0.89482496    -0.33257335     0.13856194
O       1.45901201     3.72604000     3.79647502    -0.00321671    -0.11341140    -0.51575963
O       3.03297502     6.02370401     3.19442001    -0.21290465     0.52865166     0.15663783
O       2.93058298     1.54052499     3.18089498     0.60070762    -1.63330237     0.59490310
O       5.82833299     5.99662099     3.17034901     0.51222410     0.82777828     0.02881205
O       0.08341802     1.32745097     3.11020002    -0.70224927    -0.00495040     0.45771772
O       2.88137002     7.80119399     1.43014899     0.78638711     1.93313579    -0.57157830
O       3.01104898     3.27253102     1.43934402    -0.08826729    -0.24556898    -0.11203509
O       0.11101202     7.99065400     1.54875502    -1.09389759     0.18407331    -0.66787618
O       5.89240799     3.27641100     1.42643300     0.20859728    -0.50600357     0.63848254
