# total energy = -79406.14065930 eV

CRYSTAL
PRIMVEC
       10.35150501     0.00002646     0.00000000
        0.00002858    11.01713167     0.00000000
        0.00000000     0.00000000     9.26345890
PRIMCOORD
95 1
Ti      7.04785203     8.79033002     3.44431247    -0.06407089     0.09880316     0.10353785
Ti      7.06322687     3.25339546     3.42595193     0.11097348    -0.00352370     0.00705999
Ti      1.87867383     8.77644550     3.44193073    -0.01289923     0.02184461    -0.01597761
Ti      1.82648402     3.20867685     3.44919847    -0.02134916     0.02829372     0.00994632
Ti      8.47944949     7.75126409     5.82180722     0.03960092    -0.01038598    -0.00605752
Ti      8.46935238     2.24686568     5.82206460     0.08060206    -0.02425348     0.02967260
Ti      3.29091592     7.75412495     5.82643122    -0.05079833    -0.04729957    -0.01221403
Ti      3.26827093     2.28704681     5.77266318     0.11003811    -0.07719174     0.11155584
Ti      9.59945977     7.76151088     1.21981231    -0.10984477     0.06893953    -0.04237488
Ti      9.64091322     2.24196026     1.19396797     0.03673774    -0.11207469    -0.05066232
Ti      4.47061015     7.74385653     1.20391167    -0.02911827    -0.07298876     0.00253254
Ti      4.45389378     2.27589847     1.20689270     0.01747374    -0.05556027     0.00947838
Ti      5.88897541     8.78276928     8.07368188     0.00912382     0.00605366     0.04571629
Ti      5.87826229     3.23383713     8.05122004     0.06370605     0.06257450    -0.01602492
Ti      0.69441712     8.83793009     8.01308181    -0.07924940     0.13444072    -0.14235458
Ti      0.70435912     3.25887233     8.06946680     0.04896899     0.08464460     0.03909621
Ti      7.03266003     6.00985231     1.19076099    -0.03156545    -0.03682232    -0.05214431
Ti      7.04100915     0.51821352     1.19289054    -0.02597561     0.03527246     0.05552274
Ti      1.79019031     6.17638756     1.02232521    -0.02129311     0.05130587     0.05921870
Ti      1.87816294     0.50691862     1.18154649    -0.01320699    -0.03268619     0.00735207
Ti      8.46788719    10.51027273     8.07327910    -0.13032155    -0.06349367     0.09248956
Ti      8.47564582     4.98883162     8.08168339     0.06509419    -0.00709753     0.05232711
Ti      3.30774136    10.52596008     8.06760158     0.03813564    -0.08553961     0.06794554
Ti      3.30444747     4.97562845     8.05565271    -0.04530388    -0.03793201     0.05452412
Ti      5.89890974     6.05910665     5.86804225    -0.00742869     0.10233997     0.15804320
Ti      5.87809436     0.52609899     5.83724440     0.02213078     0.01636096    -0.03213932
Ti      0.71278080     6.01559156     5.81611951     0.04569161    -0.00514169     0.03097409
Ti      0.72876120     0.51720309     5.83096343     0.01738221     0.03014517     0.00408677
Ti      9.63871856    10.51589427     3.43798073     0.03303200     0.00759916     0.01921849
Ti      9.64317689     4.99646578     3.42274119     0.00473675     0.04467679    -0.03084708
Ti      4.46937367    10.51278953     3.43856990    -0.05882866     0.00128170     0.01074773
Ti      4.57150958     4.98424695     3.52636952     0.09740114    -0.00681343     0.07112651
O       6.81367456     7.44210487     4.72454710     0.02507109     0.02233544    -0.03201436
O       6.81596422     1.93863478     4.72720043     0.01526027    -0.02325949     0.00343834
O       1.64064648     7.45061202     4.73675205    -0.02288334     0.02989397     0.05092329
O       1.64756735     1.90277351     4.77073400    -0.08185856     0.07956744    -0.20546721
O       8.71228469     9.07547136     4.53708667     0.01894030     0.01191115     0.00447706
O       8.72315961     3.56882759     4.53999107     0.06322756     0.00463853    -0.01952754
O       3.53615939     9.07784806     4.53804135    -0.01337540     0.01291928     0.01051993
O       3.56126112     3.61718341     4.48370059    -0.04742093    -0.11854435     0.02844567
O       6.12260396     7.44818388     0.09797478     0.02043771    -0.03071030     0.02988266
O       6.12527958     1.93586609     0.10116716    -0.01226597    -0.02195157    -0.01780850
O       0.93706815     7.46137724     0.07791744    -0.04458346     0.00518386    -0.21774681
O       0.94598400     1.93220807     0.09156044    -0.04624028    -0.04970278    -0.01904700
O       9.40068323     9.07110754     9.17076308    -0.08944048     0.09089007     0.00559986
O       9.40316166     3.57018058     9.16451582    -0.00680828    -0.00415568    -0.00976377
O       4.22264023     9.05894170     9.17444833    -0.02423368    -0.03571469     0.00759298
O       4.22905286     3.57480493     9.16479061     0.04844963    -0.01205694    -0.00502702
O       8.72064625     6.32326955     0.09638436     0.00539520    -0.02780932     0.00939353
O       8.71218314     0.81460356     0.09405506    -0.01881894     0.00355327    -0.01086986
O       3.53484579     6.28846474     0.12699002     0.02725190     0.07940007    -0.10673245
O       3.53219308     0.82002053     0.10870788     0.01062200     0.01759741     0.02740797
O       6.81560860    10.19821306     9.16681031    -0.00800050    -0.01650237    -0.00063043
O       6.82031742     4.69511780     9.16750013    -0.00637865    -0.05506097    -0.02990940
O       1.63564778    10.19302844     9.17586591     0.04628759     0.04689565     0.04553554
O       1.66110404     4.65036947     9.23297367     0.00874278     0.04150225    -0.13679662
O       9.40769443     6.31936883     4.73564894     0.03684264    -0.04984522     0.00218492
O       9.40066912     0.81414256     4.72625276     0.00082147    -0.00326196     0.01560300
O       4.20148996     6.32810367     4.71498951     0.06772417     0.02337159     0.04909395
O       4.22378598     0.82529410     4.72324518    -0.01047674     0.03747024    -0.00752536
O       6.12045868    10.20133319     4.53552762    -0.02456279     0.01819416     0.02108871
O       6.12333521     4.67613221     4.56049411     0.05221270     0.07861716     0.03036834
O       0.94735217    10.19683925     4.53647219    -0.00469638    -0.02715677     0.01323990
O       1.00622393     4.71474572     4.49010142     0.01575855     0.02478724    -0.04842572
O       5.36554759     8.85384497     2.50225365    -0.02339319    -0.02972993    -0.00712582
O       5.39330594     3.34495316     2.48897480     0.08059794    -0.01191398     0.00468661
O       0.18990727     8.85389930     2.49634710     0.04643645    -0.00446447     0.01430562
O       0.18469310     3.36980689     2.47773392    -0.09066202    -0.03539382     0.03451244
O      10.16714091     7.66544770     6.76796563    -0.03590187    -0.03358530    -0.07976079
O      10.16539409     2.14798343     6.76109086     0.01626995    -0.04437674     0.02267071
O       4.99165636     7.65326562     6.75472462     0.03621554     0.00252765     0.03518582
O       4.99813142     2.15331812     6.76234808    -0.04593715    -0.01222663    -0.04220287
O       7.95113419     7.66662248     2.13142987    -0.08656213    -0.00960025     0.04807939
O       7.95632510     2.15205240     2.12941144     0.02326952    -0.06693098    -0.01295631
O       2.77505383     7.57246762     2.17475544     0.00623827    -0.04676556    -0.04029460
O       2.76034708     2.19047095     2.12558954     0.02608848     0.02477387     0.00585003
O       7.57481880     8.85589929     7.13298144    -0.02652814    -0.01906165    -0.00023551
O       7.57954421     3.35370610     7.13265074    -0.03066145    -0.02335154     0.00430094
O       2.39489808     8.85444175     7.13761287     0.00873250     0.01482447    -0.01228756
O       2.39857330     3.36733402     7.13165886     0.00037307    -0.02222951    -0.09524321
O       5.33852783     6.08333133     2.10569727     0.05871245    -0.05220653     0.04763742
O       5.36266362     0.59686016     2.13336601    -0.00273077    -0.00849313     0.01384668
O       0.21607802     6.09547389     2.15112841    -0.00842551     0.17152735    -0.16419045
O       0.18773594     0.60209698     2.13308871     0.00178512     0.03037554     0.03721210
O      10.16886812    10.40388930     7.14330305    -0.04871857     0.02347778    -0.03417280
O      10.17434135     4.91014415     7.13630587     0.00923026    -0.02336054    -0.02532743
O       4.99544990    10.41047814     7.13534662    -0.00516381    -0.00455985     0.02066114
O       4.98836436     4.91792473     7.13113767    -0.01450411    -0.05611383     0.04268598
O       7.57171655     6.10403475     6.75764353     0.02850609    -0.00272511     0.05193707
O       7.57506495     0.59466366     6.76245573    -0.03431704    -0.02170320     0.02181376
O       2.40119198     6.10689989     6.77415585    -0.01339520     0.00094591     0.02542539
O       2.40199717     0.56147332     6.78987787    -0.04785879     0.01721431    -0.03454150
O       7.95013541    10.41678024     2.50256142    -0.01247268     0.00449866    -0.01775707
O       7.94841252     4.91319522     2.50752765     0.01803141     0.01640724     0.01046259
O       2.77571436    10.40923484     2.49927537     0.02616895    -0.04654830    -0.00405823
