# total energy = -19942.70119973 eV

CRYSTAL
PRIMVEC
        4.82483195     0.00000000     0.00000000
        1.26404449     4.97707144     0.00000000
        0.00000000     0.00000000     8.70471036
PRIMCOORD
24 1
Ti      2.49784117     2.94940807     3.22938562     2.71105445    -1.39011372     0.66471655
Ti      3.59103541     2.02766370     5.47532522    -2.71105445     1.39011372    -0.66471655
Ti      4.67607933     2.02766542     1.12293505    -4.71449555     0.05498975     2.18621677
Ti      1.41279727     2.94940655     7.58177589     4.71449555    -0.05498975    -2.18621677
Ti      1.86581903     0.46087239     1.12296995     2.71098606    -1.38984607    -0.67448983
Ti      4.22305757     4.51619957     7.58174099    -2.71098606     1.38984607     0.67448983
Ti      0.78077503     0.46087048     5.47529032     4.71492415    -0.05468430     2.20070494
Ti      5.30810157     4.51620143     3.22942052    -4.71492415     0.05468430    -2.20070494
O       1.97218133     1.75251157     4.44194727    -1.65701695    -0.74935087    -0.85484430
O       4.11669519     3.22456020     4.26276357     1.65701695     0.74935087     0.85484430
O       1.33045110     1.75253166     0.08961990     1.63183170    -1.14870376    -0.50154708
O       4.75842554     3.22454020     8.61509070    -1.63183170     1.14870376     0.50154708
O       3.48467304     0.73602437     0.08959165     1.65699381     0.74940434    -0.85452008
O       2.60420354     4.24104739     8.61511895    -1.65699381    -0.74940434     0.85452008
O       4.12640338     0.73600432     4.44197551    -1.63208393     1.14872972    -0.50106783
O       1.96247316     4.24106750     4.26273533     1.63208393    -1.14872972     0.50106783
O       0.94416081     3.02733710     2.35135957    -0.71580721    -1.76641820    -2.25491076
O       5.14471571     1.94973468     6.35335128     0.71580721     1.76641820     2.25491076
O       3.08289212     1.94968826     2.00102356     1.20605712    -2.39145850    -2.36561248
O       3.00598446     3.02738355     6.70368714    -1.20605712     2.39145850     2.36561248
O       0.31213866     0.53880127     2.00099576    -0.71564960    -1.76660332     2.25493724
O       5.77673793     4.43827055     6.70371494     0.71564960     1.76660332    -2.25493724
O       2.37396230     0.53884768     6.35337903    -1.20602652     2.39155723    -2.36587036
O       3.71491428     4.43822409     2.35133176     1.20602652    -2.39155723     2.36587036
