# total energy = -19953.64994292 eV

CRYSTAL
PRIMVEC
        5.31216477     0.00000000     0.00000000
        1.65882839     5.40492122     0.00000000
        0.00000000     0.00000000     9.61883479
PRIMCOORD
24 1
Ti      2.90842437     3.20295134     3.56851910     1.32889624    -2.38501300     1.04789796
Ti      4.06256870     2.20197001     6.05031574    -1.32889624     2.38501300    -1.04789796
Ti      5.25720772     2.20197187     1.24085989    -2.71557137    -0.36695878     0.94568295
Ti      1.71378544     3.20294968     8.37797507     2.71557137     0.36695878    -0.94568295
Ti      2.07901030     0.50049082     1.24089845     1.32926520    -2.38532770    -1.05465071
Ti      4.89198280     4.90443069     8.37793650    -1.32926520     2.38532770     1.05465071
Ti      0.88437125     0.50048880     6.05027718     2.71569890     0.36795148     0.94200370
Ti      6.08662184     4.90443270     3.56855767    -2.71569890    -0.36795148    -0.94200370
O       2.26543534     1.90316468     4.90841777     0.65371248     1.25838629    -0.85760849
O       4.70555774     3.50175671     4.71041708    -0.65371248    -1.25838629     0.85760849
O       1.55888811     1.90318649     0.09903131     0.32285637    -0.57325620     0.55944063
O       5.41210503     3.50173495     9.51980327    -0.32285637     0.57325620    -0.55944063
O       3.87614364     0.79929603     0.09900011    -0.65409891    -1.25919747    -0.85714106
O       3.09484943     4.60562536     9.51983447     0.65409891     1.25919747     0.85714106
O       4.58269093     0.79927427     4.90844898    -0.32244011     0.57349943     0.56051664
O       2.38830211     4.60564718     4.71038587     0.32244011    -0.57349943    -0.56051664
O       1.20199670     3.28757952     2.59828725     0.11458151     0.42599621     0.28516219
O       5.76899638     2.11734188     7.02054760    -0.11458151    -0.42599621    -0.28516219
O       3.49891561     2.11729148     2.21116076     1.28592898     0.06526028    -0.64581405
O       3.47207747     3.28762992     7.40767392    -1.28592898    -0.06526028     0.64581405
O       0.37258255     0.58511885     2.21113004     0.11422027     0.42623713    -0.28597954
O       6.59841048     4.81980256     7.40770464    -0.11422027    -0.42623713     0.28597954
O       2.64266338     0.58516924     7.02057827    -1.28556286    -0.06546494    -0.64522346
O       4.32832970     4.81975216     2.59825652     1.28556286     0.06546494     0.64522346
