# total energy = -19960.91407599 eV

CRYSTAL
PRIMVEC
        5.93400000     0.00000000     0.00000000
        0.00000000     9.29699974     0.00000000
        0.00000000     0.00000000     4.64899994
PRIMCOORD
24 1
Ti      4.46436699     7.01831800     2.44501999    -0.08427385    -1.27301253    -0.64668205
Ti      4.46011700     2.34929801     2.40387000     0.35725415    -0.62518351    -1.26212930
Ti      1.47483398     6.96429498     2.23956200    -0.16126428    -0.54568754     0.27396143
Ti      1.52247502     2.33488502     2.29476402    -0.01050579    -0.16435526    -0.44876668
Ti      2.96167198     4.60057700     4.63737800    -0.32348989     0.72459088    -0.11416808
Ti      2.96418801     9.21836998     4.62804802     0.47691385     1.44084906     1.31831384
Ti      5.87539299     4.67862398     0.05209099     0.21629182     0.38936518     0.27188706
Ti      0.02564202     9.27274300     4.55902002    -0.60085495     1.29661680     1.66133435
O       4.42881199     5.64717302     0.92146899     0.27789625    -0.81414295    -0.45785039
O       4.41207602     0.98821899     0.79759098    -0.05083818    -0.80779258     0.32420389
O       1.50514901     5.52108299     0.93404600    -0.17443244     0.53426901     0.22105042
O       1.53257399     0.95929601     0.86151501    -0.31578146    -0.12188370     0.04073863
O       4.45958100     8.44052398     3.73062198    -0.25439430    -0.61884548     0.12982533
O       4.49325001     3.77810199     3.70210298    -0.38004261    -0.15373377     0.17028808
O       1.41271000     8.32729402     3.82565301     0.87205424    -0.37870667    -0.57550977
O       1.48484099     3.72094402     3.78179300     0.04755386    -0.31518085    -0.79854200
O       2.97998400     6.11022698     3.35228300    -0.35548908     0.28519870    -0.92432170
O       3.02901799     1.39767999     3.15653298    -1.13461205     0.12861511     0.04157373
O       5.91079600     6.00159700     3.17532301     0.22496801     0.48515218     0.38024727
O       0.00811102     1.29713002     3.20256198     0.35729554     1.45774636    -1.06073163
O       2.93847502     7.90631500     1.47329201    -0.02888044     0.12116508    -0.29811772
O       3.01730502     3.20480501     1.30699298    -0.51953658    -0.26572258     1.38829415
O       5.88527902     7.93114701     1.51683499     0.66928437    -0.01944757    -0.40567498
O       5.85699000     3.28986501     1.38279900     0.89488333    -0.75987337     0.77077613
