# total energy = -4986.37578246 eV

CRYSTAL
PRIMVEC
        2.95166141     0.00000000     0.00000000
        1.57058453     4.34995863     0.00000000
       -0.00001020    -0.00006128     4.69950186
PRIMCOORD
6 1
Ti      2.26111786     2.17494862     2.34975093     0.00000000     0.00000000     0.00000000
Ti      0.00000000     0.00000000     0.00000000     0.00000000     0.00000000     0.00000000
O       1.78191248     0.84773092     0.91586371    -3.41010321     1.64657133     1.81035914
O       2.74032324     3.50216633     3.78363820     3.41010321    -1.64657133    -1.81035914
O       0.47920109     1.32719294     3.26561557     3.40971780    -1.64677290     1.81058566
O       1.09137332     3.02270429     1.43388634    -3.40971780     1.64677290    -1.81058566
