# total energy = -19516.85270918 eV

CRYSTAL
PRIMVEC
        5.93400000     0.00000000     0.00000000
        0.00000000     9.29699974     0.00000000
        0.00000000     0.00000000     4.64899994
PRIMCOORD
23 1
Ti      4.46908402     7.06268899     2.27789501     1.12968710    -0.57013051     0.68024756
Ti      4.43153699     2.30375501     2.32657900     0.89803345    -0.22804048     0.12874213
Ti      1.41405898     7.05598500     2.19139401    -0.97623178    -0.18960273     0.60183762
Ti      1.47799201     2.31970102     2.39459098    -1.32588111    -0.88141126     0.60385594
Ti      2.92392503     4.45612600     0.22064501    -0.51458103     1.17753946     0.29952540
Ti      3.04706298     9.28442898     0.07050398     0.45415469    -0.41326591    -1.92046205
Ti      5.80929298     4.46978301     4.48895902     1.17929424     1.19022194     1.09194740
Ti      0.09247298     0.08189002     0.08979498    -0.50031526    -0.11204512    -1.92332292
O       4.47972101     5.50232800     1.10273802    -0.84250865    -0.37523233    -1.18411249
O       4.57008999     0.94678700     0.98668898    -0.50815867    -0.14346632    -0.42876864
O       1.49519900     5.55525202     0.63161099     0.08802381     1.07692598     1.48793395
O       1.61653802     0.80849103     0.85233199    -1.01182769     1.40224008     1.79518217
O       4.53842100     8.54571701     3.71929097    -0.24133720    -1.25417302    -0.14347815
O       4.22023598     3.77835102     3.64691900     0.86796361     0.71642222    -0.09536225
O       1.56122799     8.60582202     3.59878001     0.02632014    -1.56597004     0.01637588
O       1.49868300     3.67296801     3.64467502     0.04618114     1.14699706     1.05014819
O       3.02430799     1.44603198     3.14511900    -0.19788503    -0.43263146     1.13827819
O       0.08954198     6.18633002     3.26327301    -0.17482454    -0.81209660    -0.25471851
O       5.87443200     1.56689199     3.35461900     0.05055588    -0.38695194    -0.18519920
O       3.00435002     7.86736401     1.39573299    -0.07355800    -0.41672507     0.12191224
O       2.77524098     3.01747499     1.26807602     1.71060828     0.83979974    -0.10539650
O       5.88625398     7.92691301     1.47693497     0.58059388     0.49918603    -1.21074887
O       0.06900799     3.34422803     1.50987800    -0.66430748    -0.26759023    -1.56441658
