# total energy = -19961.89862512 eV

CRYSTAL
PRIMVEC
        7.60600008     0.00000000     0.00000000
        0.00000000     7.60600008     0.00000000
       -1.89786986    -1.89786986     4.85670466
PRIMCOORD
24 1
Ti      3.78335301     6.55922298     1.24165002     0.58285619     0.00643393     0.18573425
Ti      3.78311102     2.79742198     1.20854802     0.28729440    -0.10835558     0.81514362
Ti      0.03914800     6.70917302     1.24947099    -0.71214056    -0.33013542    -1.01985647
Ti      0.01185002     2.89598299     1.16791398    -0.21982966     0.45770461    -0.61967157
Ti      5.71010125     2.95193025     3.59081282    -1.14181397     0.01947534     0.34575205
Ti      5.72235821    -0.89957778     3.64907180    -0.38411627     0.01676926    -0.19856663
Ti      1.82945820     2.80614022     3.63673080     0.93257649    -0.02251927    -0.27221796
Ti      1.87609422    -0.99775577     3.66020183     0.47176392    -0.17229354     0.39233300
O       3.78635303     4.67029197     0.79643198    -0.15828308     0.47924275    -0.01273828
O       3.80247198     0.88351301     0.80366202    -0.12793171    -0.63362161    -0.12458722
O       0.12584698     4.87398299     0.68449400    -0.46261928    -1.03580966     1.18329642
O       0.05690799     1.01249399     0.75335102    -0.17480526     0.07356957     0.45103954
O       5.76366822     4.83568124     4.06808779     0.05266495     0.29965499    -0.20351035
O       5.75897722     1.08458624     4.01176782    -0.44538234    -1.35038193     0.42836369
O       1.85104720     4.63099220     4.08963583    -0.32273759     1.18507588     0.03846038
O       1.89840624     0.88233422     4.10176383    -0.05179001     0.05637223    -0.62154282
O       3.76288724     2.91452525     3.24739483    -0.30623958    -0.24513704    -0.24586235
O       3.81291423    -1.08130375     3.24514684    -0.69252227     0.50720865    -0.10775934
O      -0.08771076     2.87432524     3.09555980     1.84015284     0.15246570     0.63036248
O      -0.00815176    -0.82617676     3.18715584     0.81972533    -0.21988417     0.72658837
O       5.73081298     6.59990999     1.70690202    -0.52693493     0.11143474    -0.96541283
O       5.65865500     2.84497400     1.63417999     0.26954993     0.13444432    -0.96866965
O       1.88196100     6.51505398     1.66723902     0.83979459     0.47698892     0.18438365
O       1.89030401     2.76950899     1.64296698    -0.36923215     0.14129683    -0.02106223
