# total energy = -19075.32274835 eV

CRYSTAL
PRIMVEC
        7.60600008     0.00000000     0.00000000
        0.00000000     7.60600008     0.00000000
       -1.89786986    -1.89786986     4.85670466
PRIMCOORD
22 1
Ti      3.83143501     6.72640198     1.03706401    -0.37659810    -1.63998699     1.43585572
Ti      3.85625501     2.83632799     1.27189101     0.90301625     2.42644068     0.22221410
Ti     -0.00067798     6.68222801     1.11923200     0.73759501    -1.60611835     0.48355706
Ti      0.07349198     2.68802500     1.16659099    -0.42778622     1.91117008    -1.02367405
Ti      5.76885225     2.73169425     3.53279679    -0.50495739    -0.05232840     1.81011618
Ti      6.03552620    -1.06789377     3.70245181    -0.86084525     0.71236116    -0.58805908
Ti      1.94187921     2.90168625     3.62565581     0.20210498    -0.56437664     0.31379374
Ti      1.29176125    -0.73950478     3.90192084     1.76350566    -0.54585132    -2.47521402
O       3.69418601     4.79302098     0.78301802     0.34441122     0.87337913    -0.04989510
O       3.87571498     1.04703699     0.89165800    -0.02308646    -1.21154617     0.08581986
O       0.11635698     4.60866902     0.66419100     0.41445376     0.34958608    -0.17490501
O       7.14464399     0.89443899     0.67625000     1.24480726     0.20413667     0.94283493
O       5.51650720     4.70798421     4.11780484     1.01476697     0.07058041    -1.52893380
O       5.49429525     0.81202122     3.93871480     1.30309419    -0.02163096    -0.42683722
O       2.00181023     4.84220224     4.09906080    -0.58170999     1.14138845    -0.66042692
O       2.05263225     1.05518420     4.04270882    -1.14150055    -1.40844441     0.23000043
O       3.83746721     2.87045823     3.23318780     0.27192537     0.15957481    -0.34639252
O       0.07463622     2.91641521     3.08771682     0.29410140    -0.43696609     1.08761792
O       5.85059601     6.47714801     1.79400698    -1.52194194     0.16421513     0.19489201
O       5.83307500     3.00987997     1.61301502    -1.40673051    -0.43071393     0.05639794
O       1.85668199     6.72140998     1.92823802    -0.44007558     0.32083985     0.42134431
O       2.01791499     2.82733102     1.57748802    -1.20855006    -0.41570897    -0.01010701
