# total energy = -19518.13694327 eV

CRYSTAL
PRIMVEC
        5.93400000     0.00000000     0.00000000
        0.00000000     9.29699974     0.00000000
        0.00000000     0.00000000     4.64899994
PRIMCOORD
23 1
Ti      4.48633202     7.02853001     2.24763200     1.04516385     0.40466351    -0.00472260
Ti      4.45181099     2.28647700     2.30682900     0.93208489    -0.15405953     0.11784990
Ti      1.45741199     7.10763799     2.30570503    -0.87584353    -0.06053896    -0.09724893
Ti      1.46573298     2.30329499     2.36420700    -0.73880291    -0.19979304    -0.53481845
Ti      3.02283699     4.48865802     0.12179898    -0.20934264     0.01471906     0.10889140
Ti      2.95558602     0.05052902     4.57316900     0.08366604    -0.60770951     0.83670953
Ti      0.03695001     4.64744400     0.00488902     0.24155189    -0.21658930    -0.29010848
Ti      0.00615899     0.05802302     0.00340499    -0.41371276     0.20782929     0.28052520
O       4.47142801     5.50057499     0.90817098    -0.96940498     0.80113676    -0.06811292
O       4.32459900     0.89302598     0.94120201     0.87340278     0.01585163     0.00408291
O       1.56694099     5.55941898     0.83860597     0.08286206     0.31231613     0.14182853
O       1.52484398     0.97122298     0.96610800    -0.55640339    -0.95059787    -0.91484975
O       4.45247500     8.42613200     3.75727500    -0.00169230    -0.75435012    -0.12961373
O       4.50715599     3.66856002     3.75520200    -0.92430962     0.50262437    -0.45258940
O       1.37779298     8.25485902     3.84624298     0.78300559     0.35159926    -0.05489102
O       1.34514402     3.73971102     3.63682801     1.48648333     0.57815133     0.45542816
O       2.85394001     1.32455299     3.26356898     0.62359276     0.91737998    -0.47914325
O       5.89994999     6.12778101     3.08772798     0.14342930    -1.25096608     1.27125055
O       0.02111698     1.37860802     3.26084498    -0.30134986    -0.01155917    -0.09851700
O       2.98732200     7.95693599     1.55026301    -0.47483434    -0.82227483    -0.13396661
O       3.00889502     3.16055600     1.36861800    -0.46398171     0.29211111     0.37772296
O       0.01893603     7.95183398     1.47147302    -0.29922278     0.35458971    -0.61375572
O       5.88975502     3.15937800     1.34164298    -0.06634117     0.27546681     0.27804820
