# total energy = -4912.34157981 eV

CRYSTAL
PRIMVEC
        5.56971077     0.00000000     0.00000000
       -0.00000722     2.11264862     0.00000000
       -2.78488878    -1.05642459     6.14695869
PRIMCOORD
6 1
Ti     -0.00023798     1.58454625     1.53673941    -0.04433021    -0.03115304    80.71926861
Ti      2.78505281    -0.52832249     4.61021880     0.04433021     0.03115304   -80.71926861
O       0.00005913     0.52814534     1.00128926     0.04286031     0.03192026   -75.27620444
O       2.78475553     0.52807837     5.14566901    -0.04286031    -0.03192026    75.27620444
O      -0.00002414    -0.52820353     4.07476860    -0.00118862    -0.00009719    -0.65710428
O       2.78483870     1.58442719     2.07218966     0.00118862     0.00009719     0.65710428
