# total energy = -78964.63804129 eV

CRYSTAL
PRIMVEC
       10.35150501     0.00002646     0.00000000
        0.00002858    11.01713167     0.00000000
        0.00000000     0.00000000     9.26345890
PRIMCOORD
94 1
Ti      7.16448539     8.69364118     3.28745234     0.02504821    -0.08792765    -0.07549327
Ti      7.03030194     3.29181666     3.42189394     0.10692116     0.06771414     0.05053968
Ti      1.84060610     8.75653199     3.46284398    -0.05625602     0.09645060     0.03320427
Ti      1.84153791     3.38478763     3.50769337     0.03623020    -0.01670883    -0.07511172
Ti      8.36839141     7.71009320     5.77757304     0.05584490    -0.10877185    -0.05409886
Ti      8.51170877     2.23383987     5.82480880     0.02831351    -0.08528584    -0.00537361
Ti      3.33158996     7.70957735     5.81148042     0.07586403    -0.22067427     0.01887782
Ti      3.25029304     2.18861885     5.77725864     0.00960487     0.09708438     0.13507707
Ti      9.74697365     7.71022636     1.14598361    -0.05823731    -0.10911534    -0.05426110
Ti      9.60327786     2.23397510     1.19300047    -0.02780212    -0.08553292    -0.00483908
Ti      4.43207980     7.70948822     1.17971785    -0.07455173    -0.22065421     0.01932596
Ti      4.51328776     2.18861056     1.14554665    -0.00905749     0.09729109     0.13600704
Ti      5.92327254     8.75641637     8.09446487     0.05338718     0.09758960     0.03334979
Ti      5.92218347     3.38484523     8.13956334    -0.03691180    -0.01563128    -0.07579075
Ti      0.59918678     8.69373901     7.91919910    -0.02764580    -0.09049798    -0.07664153
Ti      0.73349097     3.29181936     8.05354568    -0.10706849     0.06791623     0.05069729
Ti      7.04552641     6.03370625     1.18045789    -0.01695515     0.08541696    -0.02091362
Ti      7.05399779     0.53293511     1.18836578    -0.10692836     0.02957772     0.05878058
Ti      1.89863768     6.02236510     1.20920973    -0.05688336     0.06060170     0.02420515
Ti      1.89196757     0.82979720     1.31349298     0.20061348     0.19493983     0.24331927
Ti      8.47172430    10.48485211     8.08134598    -0.01696594     0.07450494     0.01168978
Ti      8.52273537     4.97093385     8.05377135    -0.07838217    -0.04663649     0.07241489
Ti      3.48118482    10.46849834     7.92561829    -0.04366635    -0.05721401     0.07417121
Ti      3.28662723     4.96918269     8.06376815    -0.04143591    -0.09006346     0.06507156
Ti      5.86503259     6.02229179     5.84094470     0.05545794     0.06120488     0.02338445
Ti      5.87133960     0.82992002     5.94526222    -0.19943746     0.19458296     0.24366277
Ti      0.71846847     6.03361235     5.81221119     0.01531478     0.08585071    -0.02101209
Ti      0.70958583     0.53282350     5.82015964     0.10824683     0.03116101     0.05784779
Ti      9.64331696    10.48483603     3.44963929     0.01917349     0.07476128     0.01175740
Ti      9.59239239     4.97084584     3.42214957     0.07913756    -0.04649328     0.07197575
Ti      4.28240062    10.46856523     3.29367853     0.05363837    -0.05770098     0.07598538
Ti      4.47698186     4.96918795     3.43202824     0.04083068    -0.08995522     0.06455477
O       6.76655726     7.49919927     4.75065614    -0.04516761    -0.04896128    -0.10845843
O       6.83973826     1.86451674     4.67961070     0.01436244     0.13038917     0.00794086
O       1.64507028     7.43687346     4.75304185    -0.07469546     0.00797891    -0.03812048
O       1.65362471     1.90728546     4.72436041     0.04034268     0.00122462    -0.05281665
O       8.61782092     9.14170567     4.56782089    -0.01101127    -0.07329549    -0.03489940
O       8.70547663     3.57745435     4.52481556     0.03380308     0.02304378     0.01157562
O       3.53682230     9.12488705     4.55294586    -0.13568822    -0.06938202    -0.00659257
O       3.56846368     3.55281508     4.53458555    -0.06598302    -0.00490001     0.00564769
O       6.11871229     7.43688297     0.12130484     0.07425374     0.00841754    -0.03845163
O       6.11003354     1.90731137     0.09269752    -0.04056534     0.00107858    -0.05298840
O       0.99709195     7.49920774     0.11891486     0.04531057    -0.04883581    -0.10851602
O       0.92385251     1.86458696     0.04782678    -0.01466198     0.12940573     0.00918938
O       9.49726804     9.14167182     9.19963093     0.01078784    -0.07247145    -0.03546170
O       9.40969675     3.57749800     9.15653618    -0.03398794     0.02302192     0.01142727
O       4.22688086     9.12482351     9.18471079     0.13485004    -0.06939744    -0.00675918
O       4.19519971     3.55279984     9.16633065     0.06565443    -0.00540523     0.00657251
O       8.71642041     6.33775119     0.07218914     0.07589745     0.07138131    -0.00747240
O       8.68492640     0.83227057     0.09676721     0.01314657    -0.02182199     0.00681163
O       3.55282692     6.34651195     0.10635687     0.01421769     0.02074110    -0.03074038
O       3.39364436     0.70723131     0.08802742    -0.16873051    -0.09291302    -0.06272183
O       6.82662515    10.18177983     9.17561994     0.04076871    -0.03740417     0.04953823
O       6.82089569     4.67445498     9.18880321    -0.00801387    -0.02503973     0.00320540
O       1.64365754     4.68203743     9.16628140     0.03944794    -0.00424746     0.01009673
O       9.39877673     6.33773564     4.70386501    -0.07596738     0.07140933    -0.00728471
O       9.43017414     0.83225986     4.72848744    -0.01343068    -0.02209890     0.00695021
O       4.21089734     6.34650575     4.73814554    -0.01457379     0.02016620    -0.03112836
O       4.36986968     0.70733970     4.71973167     0.16862843    -0.09340436    -0.06306250
O       6.12013656     4.68207151     4.53453518    -0.04085150    -0.00364068     0.01015509
O       0.93706727    10.18178998     4.54387631    -0.04103097    -0.03745507     0.04986296
O       0.94286854     4.67441879     4.55701525     0.00768554    -0.02452191     0.00359852
O       5.40500059     8.96529229     2.65140031    -0.02700251     0.11982425     0.05874407
O       5.36312945     3.34987820     2.47400510    -0.02911544     0.02585348    -0.08202979
O       0.16020773     8.84204495     2.53952885     0.00651081    -0.04014059    -0.09257492
O       0.20724104     3.34204916     2.48715296    -0.00632852     0.05966736     0.02892312
O      10.13828659     7.61142567     6.73585617    -0.06560069     0.04970458     0.13923840
O      10.16699761     2.15731608     6.76475402     0.04839898    -0.04068567    -0.02653431
O       4.96398279     7.64388463     6.80381928     0.01936967     0.02986595     0.00375278
O       4.97468963     2.16368331     6.82143611     0.05147093    -0.09805214    -0.23669327
O       7.97689808     7.61149406     2.10420500     0.06710093     0.04816809     0.13734658
O       7.94812224     2.15723842     2.13310548    -0.04836170    -0.04078851    -0.02727427
O       2.79972017     7.64381542     2.17210023    -0.01959258     0.03001635     0.00348899
O       2.78882456     2.16348943     2.18970102    -0.05134443    -0.09788836    -0.23714116
O       7.60349235     8.84202782     7.17119567    -0.00632003    -0.03986008    -0.09224299
O       7.55642570     3.34211662     7.11889294     0.00591611     0.05999029     0.02951268
O       2.35847252     8.96528794     7.28317812     0.02850995     0.11982296     0.05830107
O       2.40057596     3.34997399     7.10565263     0.02806309     0.02548324    -0.08185187
O       5.38133337     6.14091312     2.15568374    -0.00456320     0.09026812     0.03154436
O       5.33666686     0.59048954     2.12229133     0.03039431    -0.06554361    -0.04863758
O       0.20920302     6.10202975     2.12463913     0.06259096    -0.04421425    -0.03173617
O       0.16135505     0.56804426     2.11454090     0.01660728     0.01878731     0.02258098
O      10.25165018    10.41782255     7.21518871    -0.04196453     0.02952862    -0.05976814
O      10.16596380     4.89914074     7.11779044     0.00035507    -0.01177386    -0.02099409
O       5.05689804    10.36768167     7.02203066     0.19238055     0.03713857     0.00280610
O       4.98096526     4.89961029     7.13587907     0.00716361    -0.02978778     0.00245232
O       7.55452387     6.10208790     6.75640466    -0.06302933    -0.04412709    -0.03172485
O       7.60204174     0.56813333     6.74625080    -0.01544102     0.01783549     0.02415192
O       2.38243596     6.14091959     6.78747092     0.00376230     0.09055634     0.03109673
O       2.42689068     0.59054018     6.75407692    -0.03084425    -0.06610412    -0.04818660
O       7.86338776    10.41776534     2.58344806     0.04238439     0.02980347    -0.06011473
O       7.94931796     4.89907535     2.48597484    -0.00082584    -0.01170881    -0.02081849
O       2.70674364    10.36762620     2.39024491    -0.19371290     0.03754301     0.00198129
O       2.78277255     4.89958050     2.50404467    -0.00717235    -0.03002947     0.00293980
