# total energy = -19932.16962602 eV

CRYSTAL
PRIMVEC
        6.09859188     0.00000000     0.00000000
        0.96819892     6.41812849     0.00000000
        0.00000000     0.00000000    10.94613630
PRIMCOORD
24 1
Ti      2.78419999     3.80337694     4.06093853    -0.05763130    -1.55666522     0.77642048
Ti      4.28259073     2.61475137     6.88519802     0.05763130     1.55666522    -0.77642048
Ti      5.65408700     2.61475354     1.41208597     0.02736580     0.01946917    -0.35573154
Ti      1.41270375     3.80337502     9.53405070    -0.02736580    -0.01946917     0.35573154
Ti      2.30010066     0.59431281     1.41212987    -0.05763130    -1.55666522    -0.77642048
Ti      4.76669007     5.82381569     9.53400680     0.05763130     1.55666522     0.77642048
Ti      0.92860438     0.59431045     6.88515412    -0.02736580    -0.01946917    -0.35573154
Ti      6.13818635     5.82381805     4.06098243     0.02736580     0.01946917     0.35573154
O       2.27116211     2.25993207     5.58572962     1.64558865     1.75904968    -0.40724669
O       4.79562862     4.15819624     5.36040687    -1.64558865    -1.75904968     0.40724669
O       1.46001196     2.25995801     0.11269660    -0.98556900     0.58373576     0.56847858
O       5.60677883     4.15817035    10.83343964     0.98556900    -0.58373576    -0.56847858
O       4.31152927     0.94913192     0.11266110    -1.64558865    -1.75904968    -0.40724669
O       2.75526145     5.46899639    10.83347514     1.64558865     1.75904968     0.40724669
O       5.12267949     0.94910604     5.58576519     0.98556900    -0.58373576     0.56847858
O       1.94411118     5.46902234     5.36037136    -0.98556900     0.58373576    -0.56847858
O       0.81048940     3.90386956     2.95682455     0.42787698     0.79224845     1.08103307
O       6.25630131     2.51425869     7.98931200    -0.42787698    -0.79224845    -1.08103307
O       3.65016036     2.51419899     2.51627854     0.62687246     1.13396233     0.33010637
O       3.41663036     3.90392926     8.42985782    -0.62687246    -1.13396233    -0.33010637
O       0.32639006     0.69480525     2.51624354     0.42787698     0.79224845    -1.08103307
O       6.74040066     5.72332300     8.42989276    -0.42787698    -0.79224845     1.08103307
O       2.93253102     0.69486494     7.98934688    -0.62687246    -1.13396233     0.33010637
O       4.13425970     5.72326331     2.95678961     0.62687246     1.13396233    -0.33010637
