# total energy = -39481.06694628 eV

CRYSTAL
PRIMVEC
        5.93188753     0.00000000     0.00000000
        0.00000000     9.29428401    -0.00002646
        0.00000000    -0.00002646     9.29428401
PRIMCOORD
47 1
Ti      4.44891576     6.97527463     6.94363148     0.00000000     0.03150760    -0.01916887
Ti      4.44891576     7.04490170     2.39774647     0.00000000    -0.05353759    -0.05353759
Ti      4.44891576     2.34950634     6.99666157     0.00000000     0.23436771     0.23436771
Ti      4.44891576     2.29650271     2.32814586     0.00000000    -0.01916887     0.03150760
Ti      1.48297199     6.93841038     6.98363093     0.00000000     0.01004942    -0.00437319
Ti      1.48297199     6.99155664     2.34440141     0.00000000     0.02975847     0.02975847
Ti      1.48297199     2.13948490     6.78664014     0.00000000    -0.03636441    -0.03636441
Ti      1.48297199     2.33650216     2.29128160     0.00000000    -0.00437319     0.01004942
Ti      2.96253293     4.65130275     4.64005478     0.01383023    -0.00688799     0.01329569
Ti      3.09316430     4.74377843     0.09662320    -0.07296948     0.06455914     0.06455914
Ti      2.99652738    -0.02195297     4.62520227    -0.05960436     0.05174604     0.05174604
Ti      2.96253293    -0.00707399     0.00417398     0.01383023     0.01329569    -0.00688799
Ti      0.00341083     4.65130275     4.64005478    -0.01383023    -0.00688799     0.01329569
Ti     -0.12722054     4.74377843     0.09662320     0.07296948     0.06455914     0.06455914
Ti     -0.03058362    -0.02195297     4.62520227     0.05960436     0.05174604     0.05174604
Ti      0.00341083    -0.00707399     0.00417398    -0.01383023     0.01329569    -0.00688799
O       4.44891576     5.55799093     5.55201436     0.00000000    -0.02308054    -0.04498969
O       4.44891576     5.61198363     0.96482840     0.00000000     0.08721828     0.08721828
O       4.44891576     0.92967072     5.57682595     0.00000000    -0.05817972    -0.05817972
O       4.44891576     0.90488559     0.91086216     0.00000000    -0.04498969    -0.02308054
O       1.48297199     5.56376538     5.54820945     0.00000000     0.02305740    -0.11711096
O       1.48297199     5.44929496     0.80213972     0.00000000    -0.01012115    -0.01012115
O       1.48297199     0.86980258     5.51695781     0.00000000     0.13707070     0.13707070
O       1.48297199     0.90108068     0.91663660     0.00000000    -0.11711096     0.02305740
O       4.44891576     8.38539107     8.37488426     0.00000000     0.01283984    -0.01828261
O       4.44891576     8.37812874     3.73097351     0.00000000     0.08771784     0.08771784
O       4.44891576     3.75371797     8.40087320     0.00000000    -0.01156405    -0.01156405
O       4.44891576     3.72775548     3.73826230     0.00000000    -0.01828261     0.01283984
O       1.48297199     8.38336864     8.37900592     0.00000000     0.02666364    -0.02560151
O       1.48297199     8.36530905     3.71815381     0.00000000    -0.09398028    -0.09398028
O       1.48297199     3.73187715     3.73623987     0.00000000    -0.02560151     0.02666364
O       2.94464596     5.99573568     7.88435846    -0.02481141     0.05041215    -0.09189795
O       2.96650679     6.05436811     3.21735404    -0.01506976    -0.04122303     0.01645584
O       2.92115253     1.48704539     7.92103537    -0.01349444    -0.02249202    -0.04898519
O       2.96956714     1.41668730     3.23040365     0.05252714    -0.02597535    -0.04095512
O       0.02129781     5.99573568     7.88435846     0.02481141     0.05041215    -0.09189795
O      -0.00056303     6.05436811     3.21735404     0.01506976    -0.04122303     0.01645584
O       0.04479123     1.48704539     7.92103537     0.01349444    -0.02249202    -0.04898519
O      -0.00362338     1.41668730     3.23040365    -0.05252714    -0.02597535    -0.04095512
O       2.96956714     7.87753243     6.06381608     0.05252714    -0.04095512    -0.02597535
O       2.96650679     7.86450928     1.40721288    -0.01506976     0.01645584    -0.04122303
O       2.92115253     3.27388014     6.13420062    -0.01349444    -0.04898519    -0.02249202
O       2.94464596     3.23722969     1.34860691    -0.02481141    -0.09189795     0.05041215
O      -0.00362338     7.87753243     6.06381608    -0.05252714    -0.04095512    -0.02597535
O      -0.00056303     7.86450928     1.40721288     0.01506976     0.01645584    -0.04122303
O       0.04479123     3.27388014     6.13420062     0.01349444    -0.04898519    -0.02249202
O       0.02129781     3.23722969     1.34860691     0.02481141    -0.09189795     0.05041215
