# total energy = -19907.29756371 eV

CRYSTAL
PRIMVEC
        8.26050124     0.00000000     0.00000000
        0.00002705     3.76785903     0.00000000
        0.00000000     0.00000000    12.57183725
PRIMCOORD
24 1
Ti      2.99405029     2.23282979     4.66406196     0.09393683    -0.16811241     2.64434664
Ti      5.26647764     1.53502930     7.90777548    -0.09393683     0.16811241    -2.64434664
Ti      7.12415952     1.53503059     1.62180648     0.09388438     0.16892463    -2.64499328
Ti      1.13636840     2.23282863    10.95003108    -0.09388438    -0.16892463     2.64499328
Ti      2.99403694     0.34890033     1.62185691     0.09393683    -0.16811241    -2.64434664
Ti      5.26649098     3.41895882    10.94998065    -0.09393683     0.16811241     2.64434664
Ti      1.13635506     0.34889893     7.90772505    -0.09388438    -0.16892463    -2.64499328
Ti      7.12417287     3.41896022     4.66411239     0.09388438     0.16892463     2.64499328
O       2.61451023     1.32672720     6.41531237     2.03031504     0.77817371    -1.86992031
O       5.64601770     2.44113183     6.15652507    -2.03031504    -0.77817371     1.86992031
O       1.51580755     1.32674240     0.12943410    -2.03176592     0.77864423    -1.87163318
O       6.74472044     2.44111669    12.44240298     2.03176592    -0.77864423     1.87163318
O       5.64600442     0.55720231     0.12939332    -2.03031504    -0.77817371    -1.86992031
O       2.61452351     3.21065678    12.44244376     2.03031504     0.77817371     1.86992031
O       6.74470716     0.55718711     6.41535315     2.03176592    -0.77864423    -1.87163318
O       1.51582071     3.21067198     6.15648429    -2.03176592     0.77864423     1.87163318
O       0.30013944     2.29182544     3.39596691    -1.76823803     0.49190878     0.13902860
O       7.96038848     1.47603360     9.17587052     1.76823803    -0.49190878    -0.13902860
O       4.43040057     1.47599849     2.88999177    -1.76621072    -0.49179848    -0.13939061
O       3.83012736     2.29186060     9.68184548     1.76621072     0.49179848     0.13939061
O       0.30012616     0.40789592     2.88995166    -1.76823803     0.49190878    -0.13902860
O       7.96040177     3.35996317     9.68188560     1.76823803    -0.49190878     0.13902860
O       3.83011407     0.40793102     9.17591058     1.76621072     0.49179848    -0.13939061
O       4.43041386     3.35992807     3.39592679    -1.76621072    -0.49179848     0.13939061
