# total energy = -19516.78068620 eV

CRYSTAL
PRIMVEC
        5.93400000     0.00000000     0.00000000
        0.00000000     9.29699974     0.00000000
        0.00000000     0.00000000     4.64899994
PRIMCOORD
23 1
Ti      4.34731001     7.00512403     2.22547699     0.63691443     0.04986014    -1.22420628
Ti      4.49543900     2.38395198     2.33171901     0.92785183    -0.31978519    -1.11913426
Ti      1.37674399     6.93010199     2.33575901    -0.76204029     0.73374709    -0.12847936
Ti      1.49045498     2.26526302     2.35896301    -0.72915279     0.28826525    -0.11145608
Ti      2.98669799     4.52262400     0.06027599    -0.65669727     1.07795494     0.75636612
Ti      2.93915898     0.14155698     4.64098900    -0.65699912    -0.47115714     0.76611704
Ti      5.91523601     4.62262602     4.60666201     0.41001397     1.44316177     0.78208539
Ti      5.87084799     9.23548199     4.53300397     1.31359252    -0.03469499     0.59630641
O       4.36013600     5.61046902     0.95025899    -0.09751427    -0.90189190    -0.61859634
O       4.67223300     0.88661299     0.90455702    -1.37433742     0.23300580    -0.17237556
O       1.41754398     5.60814800     1.14381800     1.03176326    -1.62161182    -2.06842189
O       1.52735202     1.03986499     0.92067401     0.75718785    -0.63248750    -0.32151554
O       4.72699501     8.20575698     3.62381697    -1.61821899     1.24943499     1.38089271
O       4.41774700     3.79997500     3.78923302     0.09040002    -0.17130855    -0.42476260
O       1.66878602     8.55122199     3.62769500    -0.11156124    -0.40596191     0.40377056
O       1.42179201     3.67820502     3.90958200     0.68423945     0.03128468    -0.53294875
O       3.17656901     1.57820400     3.29837201    -1.75498579    -1.27869415     0.65214462
O       0.02929398     5.97574500     3.27473202     0.02301807    -0.18173155     0.89388086
O       5.91850702     1.32770202     3.17548600     0.51725935     0.69556877     0.14981129
O       2.98615299     7.90480002     1.30795598     0.12222643    -0.11925501     0.78832186
O       3.01446000     3.32501498     1.37251798    -0.20354223    -1.46407873     1.69334922
O       5.89506499     7.71304597     1.44729301     0.50673171     1.69581800    -1.24088915
O       0.00177502     3.34966802     1.64505199     0.94385104     0.10455652    -0.90026028
