# total energy = -19955.67405404 eV

CRYSTAL
PRIMVEC
        5.50170842     0.00000000     0.00000000
        0.87343903     5.78997124     0.00000000
        0.00000000     0.00000000     9.87481232
PRIMCOORD
24 1
Ti      2.51170382     3.43113154     3.66348497     0.33760474    -1.34697548     0.76510068
Ti      3.86344355     2.35883954     6.21132757    -0.33760474     1.34697548    -0.76510068
Ti      5.10070827     2.35884149     1.27388181    -0.56899280    -0.24915927     0.07995260
Ti      1.27443912     3.43112980     8.60093085     0.56899280     0.24915927    -0.07995260
Ti      2.07498443     0.53614602     1.27392141     0.33760474    -1.34697548    -0.76510068
Ti      4.30016296     5.25382522     8.60089125    -0.33760474     1.34697548     0.76510068
Ti      0.83771970     0.53614390     6.21128797     0.56899280     0.24915927     0.07995260
Ti      5.53742769     5.25382734     3.66352457    -0.56899280    -0.24915927    -0.07995260
O       2.04887816     2.03874723     5.03904119     1.04649465     1.24090612    -0.42298031
O       4.32626922     3.75122384     4.83577130    -1.04649465    -1.24090612     0.42298031
O       1.31711717     2.03877063     0.10166672    -0.45727292     0.13172615     0.51106428
O       5.05803027     3.75120049     9.77314554     0.45727292    -0.13172615    -0.51106428
O       3.88954981     0.85623816     0.10163469    -1.04649465    -1.24090612    -0.42298031
O       2.48559756     4.93373291     9.77317757     1.04649465     1.24090612     0.42298031
O       4.62131086     0.85621481     5.03907327     0.45727292    -0.13172615     0.51106428
O       1.75383647     4.93375633     4.83573927    -0.45727292     0.13172615    -0.51106428
O       0.73116491     3.52178871     2.66743321     0.13933996     0.47310784     0.54740658
O       5.64398246     2.26818230     7.20737933    -0.13933996    -0.47310784    -0.54740658
O       3.29291062     2.26812845     2.27000447     0.64586367     0.59382349    -0.01137148
O       3.08223675     3.52184256     7.60480790    -0.64586367    -0.59382349     0.01137148
O       0.29444550     0.62680303     2.26997289     0.13933996     0.47310784    -0.54740658
O       6.08070187     5.16316799     7.60483943    -0.13933996    -0.47310784     0.54740658
O       2.64551735     0.62685688     7.20741080    -0.64586367    -0.59382349    -0.01137148
O       3.72963003     5.16311414     2.66740169     0.64586367     0.59382349     0.01137148
