# total energy = -19518.12563326 eV

CRYSTAL
PRIMVEC
        7.60600008     0.00000000     0.00000000
        0.00000000     7.60600008     0.00000000
       -1.89786986    -1.89786986     4.85670466
PRIMCOORD
23 1
Ti      3.76410800     6.78034398     1.15592002     0.83266441    -1.20338137     0.40163860
Ti      3.73553000     2.82765800     1.23613699     0.78203294     0.83122588    -0.65312935
Ti     -0.00546402     6.67281601     1.21046602    -0.54710756    -0.43247128    -1.02575767
Ti     -0.00506899     2.80067599     1.23079199    -0.56895474     0.30283621     0.14063528
Ti      5.55497722     2.78833823     3.61880783    -0.30401378    -0.16356722     1.78243284
Ti      5.81217525    -0.99225677     3.63549883    -0.88883301     0.04190257    -0.07941112
Ti      1.93358822     2.93117221     3.62165682    -0.58777060    -0.68859439     1.73920384
Ti      1.97887722    -0.89117280     3.53294682     0.54005065     0.18563295     0.64815272
O       3.80694400     4.86453701     0.86727902    -0.51516082    -1.50394190    -0.38895663
O       3.96773901     1.01199900     0.66581198    -0.37424580    -0.85896655     0.66025594
O      -0.01846299     4.62571699     0.93607201     0.39961000     1.74985849    -0.37589516
O      -0.05819198     0.93527200     0.78225399     0.22098126    -0.68311691     0.13788497
O       5.58529622     4.76063523     4.06344182     0.64898602    -1.06231954    -0.23554013
O       5.59670121     0.93888623     4.18585782     0.74409270    -0.52265404    -1.94679556
O       1.97300520     4.73476021     4.00462679    -0.51538373     0.94159926    -0.37939135
O       1.95886220     0.93269422     4.13919582    -1.05211560     0.86161196    -0.35179286
O       3.70158825     2.66076021     3.49040980     1.50034441     0.66195184    -1.78954477
O       3.79097221    -1.02207077     3.10751080     0.37852412     0.42013564     0.43637730
O       0.07015324    -1.06961777     3.07724583     0.12227168     0.13550387     2.15950711
O       5.77373100     6.67673599     1.73644001    -0.70308128     0.32050381    -1.11275921
O       5.66180102     2.64178698     1.76645600     0.68870315     0.77649967    -0.00585929
O       1.94506501     6.94979600     1.54567002    -0.37118002    -0.33037017    -0.12277074
O       1.89391199     2.70976498     1.63832001    -0.43041491     0.22012122     0.36151524
