# total energy = -19959.08288264 eV

CRYSTAL
PRIMVEC
        7.60600008     0.00000000     0.00000000
        0.00000000     7.60600008     0.00000000
       -1.89786986    -1.89786986     4.85670466
PRIMCOORD
24 1
Ti      3.63167298     6.75279998     1.33617002     3.48614670    -0.88482954    -0.97821744
Ti      3.80337999     2.99467899     1.27561600     0.43877794     0.83069032    -0.84242458
Ti      0.14340100     6.53295901     1.20753798    -2.38933862    -0.79417498    -1.59884058
Ti      0.03518399     2.70509700     1.05733700    -0.33528355     0.77963487     2.26975606
Ti      5.80602621     2.68574325     3.51820182    -0.05707851     1.24072923     0.73482798
Ti      5.63150821    -1.12477778     3.53926482    -0.11377933    -0.97429239    -0.17887968
Ti      1.94151222     3.04803021     3.58513480     0.01377829    -2.67628001     0.65382355
Ti      1.75550520    -0.87365079     3.72013983     0.84219189     1.78920641     0.85941880
O       3.55404702     4.85901500     1.09046699     0.85613859    -0.01373330    -1.75302327
O       3.75358198     1.09139601     0.98972799    -0.45601643    -1.44073876    -2.20708154
O       0.19376899     4.57066499     0.87006397    -0.12229148     1.17169585    -0.73513832
O       0.16003098     0.75448298     0.78848998    -0.04763407     1.49470212    -0.57679738
O       5.63343923     4.62955824     3.97003680     0.80843972     0.48987170     0.95125170
O       5.56746221     0.85194621     4.09244883     0.15007663    -0.33041979    -1.01248409
O       1.77079821     4.75480825     4.07539483     0.03887124     3.08996347     0.91994645
O       2.05511721     1.07973024     3.93049482    -0.67214627    -1.16278749     1.41262528
O       3.97868721     3.01645823     3.14202479    -2.10179817    -0.33395197     1.61725046
O       3.75697422    -0.95709379     3.19658382    -0.11922570     0.06296274     1.56397255
O       0.03840620     2.90018222     3.18615384    -0.47654875    -0.68492362     0.17138517
O      -0.08758979    -0.71776078     3.02498380     2.02742024    -0.35422487     2.93589365
O       5.75510798     6.42841798     1.69003201    -0.82985831     0.26720997    -1.06447978
O       5.66314200     2.78100002     1.62510000     2.85257317    -0.37406737    -1.11246301
O       1.93816999     6.75474101     1.76064801    -2.56883280    -0.23255508    -0.07371715
O       1.97599701     2.99129400     1.79674700    -1.22458321    -0.95968749    -1.95660432
