# total energy = -19895.72741306 eV

CRYSTAL
PRIMVEC
        8.34590126     0.00000000     0.00000000
        0.00003149     5.32953745     0.00000000
        0.00000000     0.00000000    12.74651972
PRIMCOORD
24 1
Ti      3.02500621     3.15827893     4.72886793     0.52946259    -0.61497571     2.14610549
Ti      5.32092599     2.17125844     8.01765193    -0.52946259     0.61497571    -2.14610549
Ti      7.19781325     2.17126024     1.64434108     0.52877636     0.61528835    -2.14753682
Ti      1.14811902     3.15827734    11.10217885    -0.52877636    -0.61528835     2.14753682
Ti      3.02499074     0.49351028     1.64439221     0.53167142    -0.68880316    -2.14502383
Ti      5.32094146     4.83602724    11.10212779    -0.53167142     0.68880316     2.14502383
Ti      1.14810348     0.49350835     8.01760080    -0.53059567    -0.68892915    -2.14547737
Ti      7.19782872     4.83602917     4.72891899     0.53059567     0.68892915     2.14547737
O       2.64154138     1.87662068     6.50445147     0.63934978     1.51288188    -2.00099032
O       5.70439089     3.45291663     6.24206839    -0.63934978    -1.51288188     2.00099032
O       1.53147993     1.87664220     0.13123257    -0.63846223     1.51207944    -2.00060902
O       6.81445240     3.45289518    12.61528688     0.63846223    -1.51207944     2.00060902
O       5.70437542     0.78814784     0.13119120    -0.63936057    -1.51393295    -1.99978267
O       2.64155685     4.54138947    12.61532825     0.63936057     1.51393295     1.99978267
O       6.81443686     0.78812638     6.50449277     0.63866046    -1.51384965    -2.00012334
O       1.53149527     4.54141099     6.24202702    -0.63866046     1.51384965     2.00012334
O       0.30324494     3.24172680     3.44315298    -2.15824599     0.68896334     0.14587082
O       8.04268733     2.08781051     9.30336682     2.15824599    -0.68896334    -0.14587082
O       4.47620517     2.08776097     2.93014743    -2.15865402    -0.68860082    -0.14448988
O       3.86972703     3.24177641     9.81637215     2.15865402     0.68860082     0.14448988
O       0.30322940     0.57695800     2.93010675    -2.15904226     0.68782409    -0.14362573
O       8.04270281     4.75257931     9.81641284     2.15904226    -0.68782409     0.14362573
O       3.86971156     0.57700762     9.30340743     2.15879260     0.68793156    -0.14558389
O       4.47622064     4.75252969     3.44311229    -2.15879260    -0.68793156     0.14558389
