# total energy = -19518.11225369 eV

CRYSTAL
PRIMVEC
        7.60600008     0.00000000     0.00000000
        0.00000000     7.60600008     0.00000000
       -1.89786986    -1.89786986     4.85670466
PRIMCOORD
23 1
Ti      3.82557199     6.51366801     1.20787300    -0.82747309     0.94546646     0.60222200
Ti      3.75602000     2.84289698     1.22950799     0.33413658     0.00607989     0.91819707
Ti      0.01003399     6.72645802     1.27401100     0.69978872    -0.08606925    -0.47023643
Ti     -0.04965598     2.95412702     1.12498998     0.16671888    -0.87490816    -0.89788509
Ti      5.68292424     2.89332022     3.68860383    -0.48559158     0.12204517    -1.06274917
Ti      5.76862724    -0.93668977     3.61573781    -1.72421713    -0.40626710     0.71118360
Ti      1.98464821     2.86278124     3.64005584     0.82306005    -0.61663227    -0.90123884
Ti      1.89738720    -1.01852677     3.74877779     0.84810646     0.21323581    -2.10805083
O       3.62332098     4.75041100     0.68037399     0.08042259    -0.51289310     1.76654162
O       3.72115098     0.89198900     0.66564402     0.30515252     0.33402139     2.37324171
O       0.02232800     4.81104503     0.75994801     0.22612424     0.24187636     0.12036007
O      -0.05426400     0.98336903     0.89838602     0.31993174    -1.19905600    -1.17556614
O       5.74816724     4.66818024     3.81578084     0.65557293     1.77397751     1.42169588
O       5.75276325     0.93945022     3.97168884     0.34851265    -0.05848388     0.23354907
O       1.86319224     4.66182424     3.97712381    -0.31363536     1.00310830     0.30717187
O       1.80430625     0.97253021     4.19993981    -0.05947529    -0.53443047    -1.82567290
O       3.85587924     3.04896321     3.32627283    -1.35466179    -1.24985973    -1.26456928
O       3.85308323    -1.04345276     3.32057883    -0.68110425     0.09378154    -0.89172447
O      -0.06115580    -1.23777078     3.24571581     1.71406178     1.22295236    -1.07524911
O       5.69123301     6.62051498     1.48483898     0.37302170     0.18388100     0.93200364
O       5.80009001     2.87083500     1.57552202    -1.80529021     0.01282750     0.66405037
O       1.98045300     6.75285502     1.56383101    -1.34164044    -0.23591860     0.83354887
O       1.72893199     2.89889801     1.66128302     1.69847781    -0.37873495     0.78917650
