# total energy = -19894.86416581 eV

CRYSTAL
PRIMVEC
        8.57880964     0.00000000     0.00000000
        0.00003019     4.91639501     0.00000000
        0.00000000     0.00000000    12.97902196
PRIMCOORD
24 1
Ti      3.10942388     2.91345128     4.81512475     0.45862044    -0.56483455     2.57745706
Ti      5.46941615     2.00294413     8.16389774    -0.45862044     0.56483455    -2.57745706
Ti      7.39868168     2.00294587     1.67433468     0.45230169     0.56485846    -2.58087431
Ti      1.18015835     2.91344968    11.30468795    -0.45230169    -0.56485846     2.58087431
Ti      3.10940892     0.45525385     1.67438670     0.45871891    -0.55906448    -2.57913342
Ti      5.46943111     4.46114170    11.30463593    -0.45871891     0.55906448     2.57913342
Ti      1.18014339     0.45525191     8.16384573    -0.45144089    -0.55957818    -2.57969880
Ti      7.39869664     4.46114358     4.81517677     0.45144089     0.55957818     2.57969880
O       2.71525813     1.73114634     6.62309577     0.70731228     1.44514332    -2.25234377
O       5.86358190     3.18524901     6.35592673    -0.70731228    -1.44514332     2.25234377
O       1.57421825     1.73116615     0.13362629    -0.70757968     1.44503250    -2.25227332
O       7.00462185     3.18522926    12.84539580     0.70757968    -1.44503250     2.25227332
O       5.86356694     0.72705150     0.13358418    -0.70656229    -1.44424060    -2.25148605
O       2.71527309     4.18934391    12.84543791     0.70656229     1.44424060     2.25148605
O       7.00460689     0.72703169     6.62313787     0.70689139    -1.44512995    -2.25294078
O       1.57423301     4.18936372     6.35588456    -0.70689139     1.44512995     2.25294078
O       0.31170634     2.99043018     3.50595775    -2.31444596     0.74423771     0.13725916
O       8.26713369     1.92596524     9.47306475     2.31444596    -0.74423771    -0.13725916
O       4.60112175     1.92591927     2.98359472    -2.31429581    -0.74423283    -0.13647961
O       3.97771828     2.99047615     9.99542750     2.31429581     0.74423283     0.13647961
O       0.31169139     0.53223260     2.98355330    -2.31510648     0.74455061    -0.13663130
O       8.26714865     4.38416281     9.99546893     2.31510648    -0.74455061     0.13663130
O       3.97770332     0.53227858     9.47310611     2.31396619     0.74443569    -0.13839276
O       4.60113671     4.38411684     3.50591632    -2.31396619    -0.74443569     0.13839276
