# total energy = -4988.60609978 eV

CRYSTAL
PRIMVEC
        3.29242013     0.00000000     0.00000000
        0.00000000     3.81297372     0.00000000
        0.00000000    -0.00006016     4.58910605
PRIMCOORD
6 1
Ti      1.64621012     1.90645663     2.29455303     0.00000000     0.00000000     0.00000000
Ti      0.00000000     0.00000000     0.00000000     0.00000000     0.00000000     0.00000000
O       1.64621012     0.74308063     0.89434916     0.00000000    -0.41127407    -0.50741460
O       1.64621012     3.06983257     3.69475684     0.00000000     0.41127407     0.50741460
O       0.00000000     1.16335168     3.18890321     0.00000000     0.41097814    -0.50720788
O       0.00000000     2.64956157     1.40020285     0.00000000    -0.41097814     0.50720788
