# total energy = -39034.51344689 eV

CRYSTAL
PRIMVEC
        5.93200024     0.00000000     0.00000000
        0.00000000     9.29399984     0.00000000
        0.00000000     0.00000000     9.29399984
PRIMCOORD
46 1
Ti      4.46333102     6.98890802     6.88535100    -0.23613097     0.51228632     1.34395263
Ti      4.48485699     6.85716400     2.26303900    -1.14708627     0.93308865     0.27749670
Ti      4.50798601     2.35178599     6.96797599    -1.13649692    -0.81536191     0.01631571
Ti      4.33833199     2.61076999     2.13250902     0.03794461    -2.17138433     1.61612611
Ti      1.44897902     6.96288298     7.05037201    -0.33726098     0.13459859    -0.13120859
Ti      1.46947098     6.98828698     2.16726601     1.39011192     0.18515678    -0.28942019
Ti      1.46561900     2.27988800     6.97914502     1.01843208     0.22114838     0.53131867
Ti      1.33956199     2.04772201     2.68309799     1.44127252     0.72391390    -0.67082446
Ti      3.06290401     4.80664899     4.81343601    -1.87681653    -1.57632876    -0.50374357
Ti      3.00830800     4.90086598     8.96023902    -1.21805235    -2.99408725     1.91614131
Ti      2.90123502     9.25479701     4.73572601     0.96598953     0.67160556    -0.94715953
Ti      2.91761602     9.27160500     0.00720099     0.04114512     0.86131088     0.23623793
Ti      0.03661499     4.64423301     4.55426298     1.22061085    -0.71527859     0.00517486
Ti      0.03465000     4.65854598     9.23191100     0.79994839    -0.40701632    -0.59561761
Ti      5.84603000     9.01643801     4.82884602    -0.94191654     1.68932622    -1.47849542
Ti      5.85537098     0.00743902     0.04610002    -0.02533592     0.70422079     0.01046388
O       4.52278101     5.64900900     5.47610600     0.68227230     0.27068378     0.09599269
O       4.33931399     5.67690400     0.65281999     1.57158842    -0.29679875     1.89606099
O       4.55648902     0.77771900     5.75317299    -0.43492694     0.58466136    -0.78241064
O       4.43297402     0.85419199     1.01756901     0.04533834     1.40840275    -0.43594716
O       1.33656002     5.70135299     5.61129703     0.70864694    -1.14952728    -1.29251332
O       1.53682498     5.69283001     0.65148599    -0.26429305    -0.02760672     1.08382246
O       1.50503302     0.87146598     5.58853500    -0.60699989     0.70601336    -0.33166780
O       1.46191301     0.80102799     0.97780801     0.42607540     1.14717601     1.61983802
O       4.56177000     8.35123898     8.31428902    -0.98059391     0.35351705     0.28789450
O       4.39620298     8.28104700     3.80848100     1.01531899     0.17873982    -0.28029509
O       4.43502199     3.75582601     8.36767300     0.62110753    -0.40243564     1.41643591
O       4.37061900     3.74508900     3.84043801     0.56009935     0.42971969    -1.07442944
O       1.43399102     8.45007098     8.50390899     0.70073257    -1.74281007    -1.85851130
O       1.40804298     8.39058098     3.87146801     0.72174184    -0.09162927    -1.84305485
O       1.51168599     3.85549898     8.22973999    -0.72503285    -0.32647726     1.38290717
O       1.53972498     3.61361999     3.94733499    -0.57928441    -0.06237344    -0.44892455
O       2.95129598     5.93418199     7.62220402     0.67578155     2.20509845    -1.97415519
O       2.96591101     6.05353998     3.05521300    -0.09464620    -0.65131672     1.02247566
O       2.91192598     1.44162700     7.89766999     0.53610040    -0.40962265     0.46341092
O       3.21942898     1.47472402     3.27001901    -1.25324511     0.27194800    -0.48459708
O       5.89176298     6.02044402     7.86867298     0.18339506     0.29993138    -0.06694101
O       0.17324898     5.97587200     3.05732802    -1.09246934    -0.59554125     0.58428984
O       0.11612901     1.48159703     7.97019299    -0.67907231    -0.29442922     0.33476264
O       3.03834500     7.88479299     6.01038700    -0.93986865    -0.34489253     0.81025878
O       3.09412399     7.88150701     1.35253101    -0.62538508    -0.12206060     0.31237218
O       3.09219699     3.39569602     6.19149199    -0.31149749    -0.21337182    -0.80215106
O       0.01990601     7.81077998     6.08898798     0.54268115    -0.27925662     0.82885738
O       5.89737501     7.85313898     1.35736700     0.26287997    -0.16301829     0.65679369
O       5.91691800     3.19908000     6.20094500     0.13970351     1.22384967    -1.85843339
O       0.19199202     3.19500999     1.65644597    -0.80250690     0.13622764    -0.59890065
