# total energy = -19518.84974470 eV

CRYSTAL
PRIMVEC
        7.60600008     0.00000000     0.00000000
        0.00000000     7.60600008     0.00000000
       -1.89786986    -1.89786986     4.85670466
PRIMCOORD
23 1
Ti      3.80941801     6.64697401     1.24086699     0.46805356    -0.51866549    -0.08170815
Ti      3.70729400     2.80063202     1.29654501     1.03002596     0.44232427     0.01822964
Ti     -0.01990199     6.68231400     1.15577799    -0.25787249    -0.06401792    -0.61053361
Ti      0.00251603     2.89612502     1.14109999    -1.02305904     0.06967024     0.96457851
Ti      5.65261423     2.84816521     3.57449781    -0.15597937     1.15974716     1.13847847
Ti      5.74831425    -0.85252376     3.63206579    -0.70659700    -1.39774116    -0.26162707
Ti      1.86030823     2.77523024     3.70889280     1.25489961    -0.23358301     0.89123442
Ti      1.88002024    -1.02421077     3.63910882     0.68144338     0.45751075    -0.05148147
O       3.99170301     4.70879697     0.79480698    -1.18615754    -0.27032537     0.75221225
O       3.93405899     0.93926401     0.75284402    -0.69937143    -0.22741133     0.33955646
O      -0.12658899     4.82266999     0.69183099     0.58515964    -0.09939451     1.39416912
O      -0.10698398     0.98773902     0.71294199     0.28432169    -0.95677340     0.56019808
O       5.77626322     4.75378921     3.89943783     0.44418498     0.28560570     1.06953123
O       5.79225723     0.97157022     4.14775182     0.27782734     0.72830869    -1.92200137
O       1.91208923     4.66493622     3.98731682    -0.60778973     1.07080316     0.32946205
O       2.03073225     0.91314922     4.11450483    -0.85655897    -0.03762477    -0.24522060
O       3.83873924     2.83089022     3.24252482    -1.40441626    -0.25449071    -0.61085500
O       3.84966025    -0.95125675     3.20655182    -0.79396801     0.08914892    -0.20433490
O      -0.00487277    -0.78122676     3.30182780     1.02326447    -0.49818947    -1.10766893
O       5.68008203     6.68202401     1.58591601     1.47066615     0.17025132     0.25413642
O       5.76374601     2.82788502     1.75603602     0.83809355    -0.06919098    -1.56745923
O       1.94357501     6.63075001     1.57766000    -1.23353502    -0.00538261     0.40694690
O       1.75803599     2.78411200     1.79594302     0.56736477     0.15942080    -1.45584348
