# total energy = -4987.98150490 eV

CRYSTAL
PRIMVEC
        3.59577717     0.00000000     0.00000000
        0.00000000     3.75602916     0.00000000
        0.00000000    -0.00006565     4.89066253
PRIMCOORD
6 1
Ti      1.79788843     1.87798170     2.44533121     0.00000000     0.00000000     0.00000000
Ti      0.00000000     0.00000000     0.00000000     0.00000000     0.00000000     0.00000000
O       1.79788843     0.73198196     0.95311807     0.00000000    -0.17709251     0.11678855
O       1.79788843     3.02398145     3.93754430     0.00000000     0.17709251    -0.11678855
O       0.00000000     1.14597348     3.39845036     0.00000000     0.17721387     0.11672581
O       0.00000000     2.60998993     1.49221207     0.00000000    -0.17721387    -0.11672581
