# total energy = -19517.52350085 eV

CRYSTAL
PRIMVEC
        5.93400000     0.00000000     0.00000000
        0.00000000     9.29699974     0.00000000
        0.00000000     0.00000000     4.64899994
PRIMCOORD
23 1
Ti      4.53654602     7.12494399     2.23199201    -0.44327660    -0.61628440     0.40876467
Ti      4.48210300     2.24369699     2.30144901     0.40219807    -0.22571646     0.34114489
Ti      1.43813898     7.05396899     2.23758600     0.20625037    -0.39546024     0.50631699
Ti      1.48098001     2.30813400     2.41035602    -0.63115901    -0.88169176    -0.07023871
Ti      2.87593902     4.44965702     0.20274601     1.25082004     0.60437556    -0.02124658
Ti      2.98263200     9.26216501     4.60404602    -0.27851357     0.05848413    -0.45508928
Ti      5.88616100     4.57399002     4.61813002    -0.98379622     0.65342169     0.07059712
Ti      0.03995002     9.25380200     0.05541401    -0.05717313     1.44974919    -1.05330731
O       4.45677102     5.68875900     0.97730201    -0.57586099    -1.06950655    -0.71060690
O       4.45949898     0.87698101     0.90997002    -0.18386685     0.65578556     0.53487862
O       1.51449000     5.55451901     0.95499899     0.22427047     0.27246762    -0.15761974
O       1.54621899     0.79745202     0.81862398    -0.36639648     1.67301770     1.62152595
O       4.51951800     8.51507998     3.67032499    -0.55508158    -0.99750664    -0.50603263
O       4.37700199     3.63463600     3.77900101     0.11357492     1.65730749    -0.05543583
O       1.34268101     8.59738397     3.54602898     1.64069841    -1.40874908     0.14949145
O       1.49181502     3.70268201     3.74397498     0.23846759     1.08503499    -0.15676690
O       2.94995398     1.47392999     3.20817100     0.26061817    -0.45164632     0.15694097
O       0.07253099     6.18894099     3.24070598    -0.25091688    -0.57341715     0.11508931
O       0.01089602     1.58505599     3.36942798    -0.35208725    -0.29403635    -1.22149686
O       2.97230299     7.97428501     1.37202098     0.15205201    -1.13188102     0.38937932
O       2.91104702     3.06038301     1.31937700     0.35648950     0.67718666     0.41276917
O       0.04699999     7.98768299     1.45564898    -0.15068136    -0.03642175    -0.82177784
O       5.92690897     3.31569198     1.37362799    -0.01662939    -0.70451261     0.52271986
