# total energy = -19073.70177827 eV

CRYSTAL
PRIMVEC
        5.17600016     0.00000000     0.00000000
        0.00000000     5.50899976     0.00000000
        0.00000000     0.00000000     9.26300011
PRIMCOORD
22 1
Ti      1.90744400     3.32172900     3.28244902     0.39677330     0.74435495     0.20406031
Ti      3.77311502     2.23601201     5.90577300    -1.48971058    -0.44807660    -0.49640410
Ti      4.37827397     2.23707301     1.31628999     0.82399233    -0.03574426    -1.52811336
Ti      0.62043000     3.23874099     8.18993601     0.00698492     0.13235375    -0.48730548
Ti      1.81824001     0.49753901     1.29808100    -0.00095902     0.54863788    -1.69316513
Ti      3.25195200     5.13373498     7.88044098    -0.59580967     1.71904098     1.17072218
Ti      0.66331802     0.06859100     6.08237400     0.42626104    -0.26212278    -0.81075706
Ti      4.50742201     4.96828502     3.35731299     0.43110037    -0.59738036     0.72642382
O       3.62566401     3.43133600     4.35021102    -0.56533951     0.06728142     1.07569751
O       0.80378500     1.97674601     0.27957900     1.19431206     0.05125727    -0.53310635
O       4.18931002     3.79930099     8.83786699    -0.48233116    -0.74541605     0.87416306
O       3.53419202     0.93543499     0.18724799    -1.07193779    -0.66149161    -1.47104642
O       1.74337001     4.78890002     9.21620898    -0.73884636    -1.24682172    -1.40740362
O       4.54271898     1.02156298     4.74735299     0.28853316    -1.28168923     0.52507680
O       1.06492699     4.69253599     4.24330398    -1.26802484     0.34246233     2.50747854
O       0.28172598     3.64423300     2.26395299    -0.90007773    -0.48193264    -0.17840840
O       4.97663300     1.48030599     7.20359000    -0.88633749     0.23974029    -0.50253695
O       2.78128900     1.92044002     2.18045300    -1.35229304     1.05350683     2.07216336
O       1.67415002     3.92353598     6.77692300     1.15633248     0.45472727     0.08607517
O       0.04097102     0.81529302     2.21634397     0.82657295    -0.56222822     0.54822907
O       2.16954401     1.02453499     6.50046001     2.38321220     0.34042755     0.15192551
O       2.70235301     4.75770798     2.46872300     1.41759265     0.62911318    -0.83376844
