# total energy = -19517.85427550 eV

CRYSTAL
PRIMVEC
        5.93400000     0.00000000     0.00000000
        0.00000000     9.29699974     0.00000000
        0.00000000     0.00000000     4.64899994
PRIMCOORD
23 1
Ti      4.57002998     7.17312500     2.19354898    -0.01829701    -0.81342072    -0.11793680
Ti      4.45082502     2.22153198     2.36031998     0.14274564    -0.52764456     0.88538104
Ti      1.44493102     7.01084099     2.27186102    -0.60527288    -0.12085783     0.42479525
Ti      1.45748200     2.39534098     2.29185799    -0.56152271    -1.49609977     0.60457328
Ti      2.97732499     4.41689799     0.07782298     0.50051452     0.57104788     0.26011192
Ti      3.05346899     9.22614598     0.01562401    -1.88699476     1.39449077    -0.10314627
Ti      5.90771101     4.75941003     0.06050200     0.11151496     0.18768803    -0.63610838
Ti      0.03885002     0.03332700     4.62594501     0.94641700     1.00445247    -0.16351554
O       4.39104599     5.69804198     0.84846799     0.09037405    -0.49007301    -0.07814280
O       4.36610099     0.87876598     0.95187001     0.20573127    -0.28833853    -0.49691164
O       1.58249599     5.68169099     0.93100101    -0.18109212    -1.03124518    -0.52884758
O       1.36296200     0.85444801     0.98531402     0.67538097     0.68226279    -0.50853534
O       4.36128601     8.41377100     3.70145400     0.66213773    -1.08530084    -0.06147818
O       4.36211301     3.74224700     3.61560398     0.11176435     0.84799539     1.39866238
O       1.33796800     8.36953898     3.71125902     1.26568848    -0.67213572     0.49192884
O       1.52009203     3.67013401     3.88379599    -0.86151143     0.20027975    -1.16542390
O       2.94548302     1.42936199     3.31275801    -0.33052983    -0.12390639    -0.31490832
O       5.88935999     5.89496498     3.19576401     0.11870813     1.17871368    -0.33342258
O       0.00187001     1.25410299     3.14075302    -0.37984618     1.27803518     0.39221216
O       2.98263602     7.93885400     1.49652300    -0.13584120    -0.87267105     0.38491023
O       2.95080802     3.13514798     1.36500102     0.11193816     0.06278611     0.52244990
O       0.10779198     7.99084498     1.46610298    -0.65760873    -0.52167137    -0.31248480
O       5.83755099     3.21389902     1.47831697     0.67560209     0.63561293    -0.54416287
