# total energy = -4984.11319896 eV

CRYSTAL
PRIMVEC
        4.14612077     0.00000000     0.00000000
        0.00000000     3.49803444     0.00000000
        0.00000000    -0.00007902     5.49141951
PRIMCOORD
6 1
Ti      2.07306027     1.74897765     2.74570993     0.00000000     0.00000000     0.00000000
Ti      0.00000000     0.00000000     0.00000000     0.00000000     0.00000000     0.00000000
O       2.07306027     0.68169998     1.07019684    -0.00000000     0.18897307     1.68144810
O       2.07306027     2.81625538     4.42122296    -0.00000000    -0.18897307    -1.68144810
O       0.00000000     1.06724619     3.81590781    -0.00000000    -0.18877689     1.68118019
O       0.00000000     2.43070912     1.67551204    -0.00000000     0.18877689    -1.68118019
