# total energy = -19067.52827428 eV

CRYSTAL
PRIMVEC
        5.17600016     0.00000000     0.00000000
        0.00000000     5.50899976     0.00000000
        0.00000000     0.00000000     9.26300011
PRIMCOORD
22 1
Ti      1.72450701     3.25299898     3.24166702    -0.28821229     0.96118105     0.48880906
Ti      4.07399102     2.43119602     6.16048802    -1.81002516    -0.31926325    -1.58082485
Ti      4.29378897     2.32054501     1.45949599    -2.76809054    -1.91763769    -2.05411164
Ti      1.73256500     2.09856198     8.14712499    -1.62479228    -1.56067408    -0.04263173
Ti      1.44887900     0.79152899     1.27880699     3.13912426    -0.64238831     0.45796275
Ti      3.26236700     5.23025898     7.84314002    -0.49966940     1.99287925     0.40536825
Ti      0.58869101     5.46169100     5.95174998     1.50591573     1.95731600    -2.31605727
Ti      4.09147901     5.19800298     3.40958703     0.89274237     0.06941390     0.26452702
O       2.76824801     3.03995698     4.63305800     1.05257634     1.74333920     1.09803938
O       0.71591200     2.43155301     0.57315601     1.53616940     0.61957773    -2.04736712
O       4.60372301     4.42719699     6.87198202     2.08017004    -1.58121926    -1.65988990
O       3.25073601     1.29820202     0.31327097     0.18720312    -0.12534930    -2.03633657
O       1.62042599     0.33351698     8.67415399    -2.92106635    -4.71492492     0.84369547
O       4.36367001     1.02453801     4.84063498     0.64002212    -1.26583246     0.59906057
O       0.95964500     4.84686001     4.03859700    -2.17420123     0.66120570     3.30993171
O       4.85859599     3.51373001     2.47661901     1.10740180     5.13862025     3.96614613
O       5.10543998     1.29050900     7.24558899    -1.64277586     1.27867024     0.40112567
O       2.69928701     1.74953100     2.58316102    -2.26980414    -0.32379354    -0.67300527
O       3.12724498     3.05195999     7.64573801    -0.51558299     2.82819550     1.71788501
O       4.97916601     1.00531300     2.41037200     2.20206917    -2.70761200    -0.16055851
O       2.06362998     1.27807302     6.36568000     1.31708562    -1.72065332     0.11629798
O       2.48110199     4.68622402     2.26345102     0.85374001    -0.37105095    -1.09806612
