# total energy = -4984.00626606 eV

CRYSTAL
PRIMVEC
        3.22195875     0.00000000     0.00000000
        0.00000000     3.36555088     0.00000000
        0.00000000    -0.00005882     4.38222732
PRIMCOORD
6 1
Ti      1.61097923     1.68274598     2.19111361     0.00000000     0.00000000     0.00000000
Ti      0.00000000     0.00000000     0.00000000     0.00000000     0.00000000     0.00000000
O       1.61097923     0.65588482     0.85403154     0.00000000    -2.16567905    -2.42879350
O       1.61097923     2.70960714     3.52819563     0.00000000     2.16567905     2.42879350
O       0.00000000     1.02683762     3.04514611     0.00000000     2.16454571    -2.42600488
O       0.00000000     2.33865434     1.33708111     0.00000000    -2.16454571     2.42600488
