# total energy = -4976.81306072 eV

CRYSTAL
PRIMVEC
        4.86802971     0.00000000     0.00000000
       -0.00001084     4.86802971     0.00000000
       -2.43405303    -2.43405845     6.21268858
PRIMCOORD
6 1
Ti     -0.00021437     3.65120666     1.55317197    -0.00404949     0.00404949     0.00000000
Ti      2.43418008    -1.21723554     4.65951620     0.00404949    -0.00404949     0.00000000
O       0.00004863     1.21699916     1.01199613    -0.00044943    -0.00241504    -1.32449760
O       2.43391694     1.21697183     5.20069210     0.00044943     0.00241504     1.32449760
O      -0.00002749    -1.21697803     4.11834036    -0.00241504    -0.00044943    -1.32449760
O       2.43399300     3.65094895     2.09434788     0.00241504     0.00044943     1.32449760
