# total energy = -4989.13526211 eV

CRYSTAL
PRIMVEC
        4.01322150     0.00000000     0.00000000
        0.79468898     3.93375345     0.00000000
       -2.40399180    -1.96690664     5.14782412
PRIMCOORD
6 1
Ti      0.59587840     2.95046552     1.28695617    -0.00013678     0.00013678     0.00000000
Ti      1.80804028    -0.98361871     3.86086812     0.00013678    -0.00013678     0.00000000
O       0.19871429     0.98343261     0.83853855    -0.00053556    -0.00106264    -0.91827601
O       2.20520426     0.98341410     4.30928579     0.00053556     0.00106264     0.91827601
O      -0.19868796    -0.98341106     3.41245049    -0.00106264    -0.00053556    -0.91827601
O       2.60260639     2.95025768     1.73537379     0.00106264     0.00053556     0.91827601
