# total energy = -19070.33070712 eV

CRYSTAL
PRIMVEC
        5.93400000     0.00000000     0.00000000
        0.00000000     9.29699974     0.00000000
        0.00000000     0.00000000     4.64899994
PRIMCOORD
22 1
Ti      4.22306200     6.85178597     2.54214999     3.04355427    -0.07510247    -1.67331235
Ti      4.64743099     2.41256798     2.00076399    -0.80377497     2.26274106     1.24704952
Ti      1.48951997     6.98708702     2.71284400    -2.03783398     0.57336547    -0.42370459
Ti      1.56484502     2.60205101     2.21069601     0.07965101    -0.50024533    -1.34422722
Ti      3.13113300     4.48794300     4.41632399     0.74698905    -1.84815232     4.22465085
Ti      2.84685798     0.39006602     4.58690798     2.01929298    -0.22056474    -1.60519429
Ti      0.03782898     4.50403300     4.04323302    -0.02089305    -2.09748745     1.96390497
Ti      5.81970301     9.03995698     0.48709401    -0.38366041    -1.71343495     0.28303434
O       4.19789301     5.31405398     1.16157502    -0.65375182     0.09079983    -0.75042970
O       4.42138001     0.76035198     1.39696100     0.18820534    -2.52916555    -2.02971392
O       1.57007102     0.59452498     1.12838000    -1.78985742     0.90843716     0.37889307
O       4.28662201     8.35886400     3.91689798     0.36442521     1.87191318     1.29800571
O       4.39112298     3.49750702     3.64371700     2.03364720     0.28926644    -1.76983932
O       1.29871501     8.43712799     3.66981698     0.10190083     1.90695090     2.34917695
O       1.66693501     4.30826499     3.10685499    -0.91914401    -1.44180217     0.68855274
O       2.93082502     5.99836902     3.47577302    -0.47612657     2.58266226     0.74540885
O       2.81472602     1.85196099     3.28622099     0.45697776    -2.83388433     1.31722857
O       5.71055099     6.20262699     3.61874798     1.31716790     0.05416185     0.32137027
O       2.90162200     7.77016399     1.86280801    -1.35248150     0.79019208    -2.54373651
O       3.14961500     2.90710597     0.93910001    -0.62636904    -0.08428696     0.84633908
O       5.89307799     7.43094100     1.53768500     0.53897696     1.58302726    -1.28229164
O       0.67015499     3.71165299     1.01884703    -1.82689597     0.43060852    -2.24116487
