# total energy = -19958.07520110 eV

CRYSTAL
PRIMVEC
        7.60600008     0.00000000     0.00000000
        0.00000000     7.60600008     0.00000000
       -1.89786986    -1.89786986     4.85670466
PRIMCOORD
24 1
Ti      3.66618603     6.53285100     1.36464499     0.33006729     1.06473098    -1.09386828
Ti      3.83854303     2.92612201     1.27962298    -1.19567988    -1.30344334    -1.40676008
Ti     -0.05818399     6.59651701     1.11222601    -0.10739039     0.50871480     0.95804687
Ti      0.07371598     2.92402901     1.10710400    -0.32621449    -0.35791775     1.05880021
Ti      5.78476022     2.88504521     3.52327584     0.53765181     1.02358894     1.86945289
Ti      5.73907121    -0.98030477     3.68721082     2.07322189    -0.71483148     0.06364871
Ti      1.84505925     2.94677924     3.65069479    -0.73496220    -0.28500921     0.50411330
Ti      1.86927223    -0.97477180     3.66609284    -1.66846428     0.19408956     0.89090737
O       3.68904500     4.74225802     0.75533798     0.48778010    -0.01242100    -0.36708630
O       3.52260299     0.97516699     0.77801603     1.11914943     0.53760604     1.61419907
O       0.03337002     4.78706901     0.75607501    -0.73091476    -0.48561909    -1.01522154
O       0.25339002     0.92456600     0.76183098    -1.35826108     0.21408016    -0.29545869
O      -1.37926679     4.76684523     4.09095883    -1.68335997    -0.79679982    -0.80646203
O      -1.58421878     0.98579223     4.18162980    -1.62937347    -0.67714732    -3.44343320
O       1.51298724     4.80611124     4.29611280     0.98800898    -1.84438385    -1.27605800
O       1.70076621     0.93716921     4.02953580     1.63303781     0.55923263     0.01853072
O       3.90229624     3.16637822     3.42715984    -1.90143639    -1.05129208    -1.91958633
O       3.85231423    -1.31050878     3.40636079    -0.63810665     1.10854619    -0.87244685
O      -0.00622979     2.68850825     3.20689780     1.43380012     0.64354222    -1.04014480
O       0.00077821    -1.11356076     3.04659879    -1.03107677     1.41495393     1.06698481
O       5.68854801     6.54188300     1.49175400    -1.49727374     0.75747453     0.80359165
O       5.68084600     3.12852199     1.48334500    -0.16989522    -1.21602503     1.07369308
O       1.76677398     6.32732899     1.72492098     3.55637178     0.79716466     0.31624169
O       1.83051899     3.03025700     1.33968698     2.51331984    -0.07883494     3.29831572
