# total energy = -19073.27800146 eV

CRYSTAL
PRIMVEC
        7.60600008     0.00000000     0.00000000
        0.00000000     7.60600008     0.00000000
       -1.89786986    -1.89786986     4.85670466
PRIMCOORD
22 1
Ti      3.48148703     6.65716601     1.45221599     1.05061279    -1.07344162    -1.55342897
Ti      3.95562402     2.86549100     1.15214699    -0.07772165     0.89437811     0.33321895
Ti     -0.17620698     6.49876802     0.97189398     0.27814101     0.11108790     0.20347127
Ti      0.30438598     2.76210702     1.10371499    -0.21462343     1.48679135    -0.04822029
Ti      6.03195823     2.85396520     3.50346079    -0.85393798     1.25393853    -0.27633713
Ti      5.90793823    -0.89796775     3.59518880    -1.26313203    -0.48332129    -0.10045561
Ti      2.01336920     2.98085725     3.64143979     1.11308676    -0.56612164     0.80982066
Ti      1.16463822    -1.09365279     3.95295480     1.60770292     0.26904265    -0.75181398
O       3.64537999     4.79089703     0.80486902    -0.17291858     0.24797348     1.25504771
O       3.86887203     0.81578700     0.86761298    -0.87115255     1.72843940     1.12397436
O       0.57981401     4.75600202     0.64519799    -0.75161035    -0.04649199    -0.67215784
O      -0.10399698     0.93952600     0.80852399     0.69947710    -0.36928563    -1.10684078
O       5.33610824     4.53029321     3.89330583     1.01776411     3.20122800     1.15345258
O       5.72501521     1.02870221     3.84782083     0.64232377    -2.36625525     0.58038407
O       2.02271823     4.77866425     4.28286983    -1.16204110     1.24687160    -0.56699402
O       1.87432725     1.09035221     4.02293082    -0.79441846    -2.22274933     1.34996361
O       3.80291823     2.90913124     3.23927080     1.02373935    -0.58398413    -0.34735514
O       0.23280222     3.45583923     2.87504281    -1.83620028    -1.25613811     1.48132698
O       5.66942000     6.50736001     1.61765802     0.26690066    -0.09770710     1.33475553
O       5.79039998     2.95199502     1.59942300     0.48858563    -0.43802307    -0.69570298
O       1.56129202     6.68603401     2.16092298     1.12321640    -0.06243695    -0.86146617
O       2.10049998     2.73823599     1.73549400    -1.31379435    -0.87379462    -2.64464412
