# total energy = -19960.43621639 eV

CRYSTAL
PRIMVEC
        5.93400000     0.00000000     0.00000000
        0.00000000     9.29699974     0.00000000
        0.00000000     0.00000000     4.64899994
PRIMCOORD
24 1
Ti      4.45406602     6.97159498     2.34673902     0.63821360    -1.25984050    -0.44148789
Ti      4.42253801     2.34730799     2.26063600     0.26300107     0.71541846     0.47498397
Ti      1.47656799     7.01350201     2.32227902    -0.83180078    -1.13765675    -0.46631755
Ti      1.52654899     2.31845502     2.41982898    -0.69159204     0.57598054    -0.44486992
Ti      2.98184300     4.65686198     4.61220900    -0.33745870     1.10051998     0.59273746
Ti      2.94812901     0.00260800     0.04796097    -0.89369959    -0.42680585     0.17947695
Ti      0.01594099     4.58673399     0.01628501     0.41787692     1.14609666     0.35202529
Ti      5.88435201     0.05258699     4.59961702     0.83025400    -0.69669722     0.52718459
O       4.46813198     5.60516302     0.93114701    -0.00313109    -1.14392356    -0.90994794
O       4.44350999     0.81208800     1.01066002    -0.16994150     0.75301906     0.07054390
O       1.45302003     5.55564203     0.81672201     0.33417129     0.39530572     0.33309399
O       1.45384702     0.84558101     1.03285599     0.41322323    -0.32717968    -0.76071180
O       4.41789702     8.44038799     3.69462100    -0.02311654     0.25282361     0.28212803
O       4.43328899     3.74167999     3.79526601     0.25840033    -0.85850889    -0.88934697
O       1.47390798     8.44114201     3.77300299     0.30432025    -0.10274158    -0.70307485
O       1.53835700     3.79043600     3.70578002    -0.40190188    -0.70173427     0.09914897
O       2.99091998     5.97323500     3.20370300    -0.13408796     0.99819775    -0.20121769
O       3.02214202     1.48741200     3.29109403     0.51805177    -0.40499081     0.23803770
O       0.00863998     5.96369097     3.07745898     0.10489771     0.84733127     0.64882018
O       5.89447702     1.51695702     3.28744900    -0.44260760    -0.40908246     0.04050132
O       2.96324501     7.64488302     1.35872800    -0.05620382     2.22916655    -0.72737127
O       2.80323901     3.17471001     1.34262698     2.18158955    -0.29847819     0.65426552
O       0.02727099     7.83516902     1.27538501    -0.08352797     0.11978800     1.10362999
O       0.21084602     3.37446601     1.48063202    -2.19493050    -1.36600808    -0.05223224
