# total energy = -19074.71379009 eV

CRYSTAL
PRIMVEC
        5.93400000     0.00000000     0.00000000
        0.00000000     9.29699974     0.00000000
        0.00000000     0.00000000     4.64899994
PRIMCOORD
22 1
Ti      4.45802400     6.99004099     2.37916599    -0.33622251    -0.40795015    -0.39751198
Ti      4.41447002     2.27847700     2.23870600     0.18413014     0.03480247    -0.14763845
Ti      1.48454999     7.10760502     2.45719000     0.23486650     0.11223538     0.82337758
Ti      1.63427800     2.43591602     2.17426502    -0.85893338     0.36488004     0.20502447
Ti      3.02653599     4.74687900     4.60383599     0.15588630    -0.07124221     0.13013335
Ti      2.95501800     0.02983300     0.10031698     0.06971137     0.24911531    -0.67443995
Ti      5.81216102     4.48368201     4.42675698     0.98457090    -0.53933537     0.37313688
Ti      5.91049802     9.12967099     0.10326899    -0.01578812    -0.14483158     0.19351929
O       4.52186903     5.56460401     0.96282499    -0.27544444     0.05529134    -0.26986257
O       4.44262902     0.82037502     0.97426400     0.66512072     0.67399643     0.19735127
O       1.51961301     0.81805098     0.98348301    -0.88907315     1.17761248    -0.04218179
O       4.37751699     8.24604600     3.92982801     0.82220850     0.49356123    -0.16118406
O       4.27266898     3.90263697     3.54092400     0.61831094    -1.26503156    -0.38859873
O       1.53156099     8.28748301     3.90776301    -0.69369803     0.31614913     0.16790930
O       1.54157101     3.81710600     3.63672101    -0.75482449     0.07878583     0.11644093
O       2.93520502     6.08053299     3.19837598    -0.29007711    -0.35336561     0.51139595
O       2.90540901     1.36648298     3.20042898     0.35142597     0.28361027     0.26511117
O       5.92566800     6.17022801     3.30807802     0.21587093    -1.13881195    -0.03664672
O       2.92087501     7.97625398     1.65494602     0.34707797     0.06601387    -1.44442469
O       3.08013900     3.12931898     1.21866399    -0.41444990     0.94815275     0.02762163
O       0.02420399     8.13659997     1.63543002    -0.30111846    -1.34484300     0.18746280
O       5.90093002     3.04736499     1.21524799     0.18044909     0.41120491     0.36400381
