# total energy = -19516.17808833 eV

CRYSTAL
PRIMVEC
        5.17600016     0.00000000     0.00000000
        0.00000000     5.50899976     0.00000000
        0.00000000     0.00000000     9.26300011
PRIMCOORD
23 1
Ti      1.92244602     3.17194702     3.47819099    -0.74089887     0.75762545     0.38402988
Ti      3.35019799     2.26930901     5.97003300     1.19755036     0.64856178    -2.51476377
Ti      4.32000701     2.13760901     1.62800503    -0.52186240    -0.53135338    -3.26454246
Ti      0.89560202     3.40713699     7.88563301    -2.16803058     0.34453052    -0.00076567
Ti      1.76322399     0.27983898     1.26441803     2.86078373    -1.04997644    -0.16778306
Ti      3.40815200     5.18499300     7.91407501     0.30874770     0.77014364     2.08393002
Ti      0.78633702     0.49822398     5.83627700    -1.23762488     0.32343076    -3.68095746
Ti      4.52201900     4.84952902     3.31736498    -0.77483462     0.87519947     3.48658224
O       1.71036998     2.03530201     4.81225298    -0.65565675    -1.89434580     1.45983692
O       3.50823403     3.42117500     4.36922197     1.81190078     0.42662356     1.96497583
O       4.90333798     3.05654600     9.17731202    -0.74964757    -1.08823267     2.41000310
O       3.53353500     0.68615101     0.26671502    -0.25801056    -0.59817740    -1.40359788
O       1.43333601     4.88057802     8.93397002     1.25346956     1.28074641     1.08910222
O       4.48913899     0.78841700     4.57756700    -0.87270653     0.03554063     1.00279231
O       1.13928602     4.65016302     4.43500400    -1.07534116     0.91155925     0.97211133
O       0.08283100     3.27522199     2.67758698     1.27183239    -0.60165508    -1.13939379
O       5.08576898     2.14804899     6.79353102    -0.07105349    -0.87524858    -0.64565695
O       2.49333397     1.96828298     2.00068202    -0.50204870     0.45662141     0.16038933
O       2.69303298     3.58283399     7.26505600     0.40941388    -2.19868894    -0.73003107
O       0.13115198     0.57921800     2.14696302     0.26053307     0.86880076    -1.23332291
O       5.08440598     4.82465800     6.95549101    -0.63180821    -0.45715491     0.75669162
O       2.53598899     0.65977698     6.60674098     0.50041194     0.23388666     1.02849487
O       2.73976600     4.64863799     2.46596101     0.38488040     1.36156264    -2.01812467
