# total energy = -19909.04163053 eV

CRYSTAL
PRIMVEC
        6.58141858     0.00000000     0.00000000
        0.69875112     6.96968022     0.00000000
        0.00000000     0.00000000    11.79407788
PRIMCOORD
24 1
Ti      2.79952702     4.13022608     4.37551888    -0.09803080    -1.33095956     0.66931522
Ti      4.48064288     2.83945419     7.41855941     0.09803080     1.33095956    -0.66931522
Ti      5.96072066     2.83945656     1.52147315     0.18191333     0.41658803    -0.53980794
Ti      1.31944925     4.13022405    10.27260533    -0.18191333    -0.41658803     0.53980794
Ti      2.45015160     0.64538603     1.52152046    -0.09803080    -1.33095956    -0.66931522
Ti      4.83001831     6.32429451    10.27255802     0.09803080     1.33095956     0.66931522
Ti      0.97007374     0.64538347     7.41851216    -0.18191333    -0.41658803    -0.53980794
Ti      6.31009610     6.32429701     4.37556619     0.18191333     0.41658803     0.53980794
O       2.32910276     2.45414290     6.01842782     1.59741542     1.63251947    -0.27517807
O       4.95106714     4.51553744     5.77565046    -1.59741542    -1.63251947     0.27517807
O       1.45373224     2.45417109     0.12142665    -1.18634626     0.90906708     0.32423757
O       5.82643773     4.51550931    11.67265137     1.18634626    -0.90906708    -0.32423757
O       4.60169171     1.03069712     0.12138841    -1.59741542    -1.63251947    -0.27517807
O       2.67847820     5.93898322    11.67268961     1.59741542     1.63251947     0.27517807
O       5.47706230     1.03066900     6.01846613     1.18634626    -0.90906708     0.32423757
O       1.80310754     5.93901135     5.77561223    -1.18634626     0.90906708    -0.32423757
O       0.66413817     4.23935476     3.18587475     0.48709439     0.43607288     0.87031360
O       6.61603166     2.73032559     8.60820353    -0.48709439    -0.43607288    -0.87031360
O       3.80356520     2.73026068     2.71120189     0.52625488     0.92149323     0.17972892
O       3.47660470     4.23941959     9.08287626    -0.52625488    -0.92149323    -0.17972892
O       0.31476274     0.75451444     2.71116419     0.48709439     0.43607288    -0.87031360
O       6.96540709     6.21516584     9.08291389    -0.48709439    -0.43607288     0.87031360
O       3.12722927     0.75457935     8.60824117    -0.52625488    -0.92149323     0.17972892
O       4.15294064     6.21510099     3.18583712     0.52625488     0.92149323    -0.17972892
