# total energy = -19960.98409581 eV

CRYSTAL
PRIMVEC
        5.93400000     0.00000000     0.00000000
        0.00000000     9.29699974     0.00000000
        0.00000000     0.00000000     4.64899994
PRIMCOORD
24 1
Ti      4.43869400     7.02328401     2.27015400     1.27744305     0.21465146    -0.22192408
Ti      4.46996600     2.38682499     2.36378202    -0.62466029    -0.58456803    -1.40069047
Ti      1.49783102     6.86774400     2.31608298    -1.13006017     0.93176196     0.11715442
Ti      1.50002398     2.28911802     2.43957099     0.83176041    -0.26382716    -1.31790040
Ti      2.94764402     4.65694200     4.61978201     0.80134348     0.68448731     0.63588058
Ti      2.94307801     0.01305501     0.03268903    -0.39415720    -0.58635906     0.32925199
Ti      0.02102199     4.58418499     4.62575499    -0.91082700     1.07920578     0.48025062
Ti      5.90642997     0.06011401     4.57912098     0.14075227    -1.24823994     1.19136711
O       4.51110302     5.65247099     0.88736198    -0.42107435    -1.80137982    -1.01894064
O       4.52437399     0.90736398     1.07583899    -0.57238794    -0.40235774    -1.25877761
O       1.46298200     5.60514201     0.80883901     0.26574264    -0.56411901     0.12127564
O       1.44044498     0.80359000     0.97478799     0.47160092     0.69346098     0.21334636
O       4.45821900     8.41722600     3.70579002    -0.11764858     0.50338516     0.57527966
O       4.40987401     3.75965402     3.65531001     0.28040487     0.61696909     1.09291825
O       1.49070300     8.38667702     3.75386800     0.21570227     0.21880122    -0.12049737
O       1.51180299     3.76447901     3.70762098    -0.28377302    -0.14424948     0.17740541
O       2.99271399     6.05437899     3.29112202    -0.35140668     0.11303962    -0.69952544
O       2.94312802     1.46496297     3.35062700     0.00812700     0.16584136    -0.33546301
O       0.06180600     5.99016899     3.09912402     0.00517409    -0.22381667     0.89508028
O       5.92200800     1.46685600     3.27248302    -0.14494239     0.21430204     0.23383781
O       3.03658702     7.85981101     1.37995001    -0.71348602     0.04116261     0.11827645
O       2.85782200     3.16765999     1.39248501     0.57918954     0.29864943     0.05613980
O       5.90958302     7.84799400     1.39861701     0.54189824     0.08911807     0.22242056
O       5.89359801     3.25880702     1.40593500     0.24528513    -0.04591863    -0.08616644
