# total energy = -19960.30722090 eV

CRYSTAL
PRIMVEC
        7.60600008     0.00000000     0.00000000
        0.00000000     7.60600008     0.00000000
       -1.89786986    -1.89786986     4.85670466
PRIMCOORD
24 1
Ti      3.84970898     6.41662902     1.26580701     0.46707372     2.33876449    -0.34690905
Ti      3.76484700     2.78934398     1.25076800     0.51487723    -1.67268243    -0.65285141
Ti      0.03227701     6.76117802     1.25662399    -0.19505604    -1.04610719    -0.31919718
Ti     -0.00911402     2.94255302     1.13190400    -0.06096756     0.75885392     0.40209214
Ti      5.65774223     2.97909324     3.53603980    -0.56231024    -0.21120463     0.76738716
Ti      5.73657821    -0.87496077     3.68003983    -0.14351929     0.41772883     0.06969518
Ti      1.77832222     2.77386422     3.57490083     0.98032292     0.72810095     0.32859919
Ti      1.94585624    -0.97389278     3.60742581     0.07062257    -0.49906956     2.26157583
O       3.77524200     4.67854402     0.86836098     0.23876198    -1.43003011    -0.51409612
O       3.79089300     0.80709299     0.81157899     0.16454655     1.01283864    -0.30176740
O       0.13555399     4.81228298     0.62092198    -0.27604119     1.78345305     1.77918785
O      -0.08420898     1.10256202     0.72543099     0.58578519    -2.29476442     1.56208228
O       5.71371722     4.86159722     4.09087183     0.13807806    -0.58355013     0.17185363
O       5.68031322     1.13138620     4.17589183    -0.08991511    -1.29203330    -3.60765374
O       1.86116920     4.59820422     4.18449482    -0.24528719     0.70376159    -1.00124656
O       1.89710325     0.89029421     4.03910983    -0.10381990     0.33497321     0.19701779
O       3.65024123     2.94931522     3.31040381     2.02978308    -0.37563085    -0.86653716
O       3.87773622    -0.96759277     3.25072182    -0.84490801     0.13445975     0.34844657
O      -0.04739978     2.90810924     3.00313180     0.21258403     0.18074373     2.25564070
O       0.00772821    -0.86133879     3.27631284     1.22843627     0.17108255    -0.31954428
O       5.81324699     6.48378199     1.82203300    -0.09593278     0.19506016    -2.60642106
O       5.64984500     2.71245601     1.59328899    -0.13122890     0.82211234     0.23614100
O       1.99078101     6.50830798     1.71097298    -1.73630106     0.31112237    -0.40170468
O       1.97116398     2.89581402     1.55407298    -2.14558433    -0.48798271     0.55820933
