# total energy = -19518.24471767 eV

CRYSTAL
PRIMVEC
        5.93400000     0.00000000     0.00000000
        0.00000000     9.29699974     0.00000000
        0.00000000     0.00000000     4.64899994
PRIMCOORD
23 1
Ti      4.47800399     7.01556797     2.21612998     0.10556439     0.97691543     0.16922982
Ti      4.46256000     2.27342098     2.32738700     1.06651790     0.23367171     0.14456470
Ti      1.42808599     7.03782300     2.30894100     0.02012069     0.25552918    -0.20324912
Ti      1.49304202     2.31748001     2.36633800    -0.96816622     0.17950369    -0.17412828
Ti      2.95369400     4.51110397     0.10207998    -0.02914886    -0.40541710     0.13995522
Ti      2.96173501     0.07722601     0.00703901     0.22409975    -0.78119425    -0.20545899
Ti      5.91253398     4.70985702     0.03172698     0.27031457    -0.78779967    -0.35719578
Ti      0.00269198     0.00616502     4.62775602    -0.23667013    -0.07085140    -0.66682999
O       4.43630599     5.54721700     0.90947000    -0.48010639     0.58964133    -0.00213350
O       4.46538502     0.92263001     0.94014800    -0.06406112    -0.30146736    -0.26507852
O       1.48171001     5.56166798     0.92631499     0.68379594     0.03790784    -0.57291116
O       1.42353099     0.87492801     0.85387200     0.57681512     0.31790314     0.54040443
O       4.39365901     8.45249498     3.65941399     0.34666145    -0.63600168     0.37690998
O       4.50986898     3.72702299     3.86278299    -0.69950024    -0.10619174    -1.26657834
O       1.54271102     8.35075399     3.67839700    -0.34451304     0.00478174     0.57635155
O       1.48353101     3.59917202     3.78033702     0.32736146     1.63484812     0.16632164
O       2.96340800     1.46473897     3.30485798     0.39418214    -0.12676032    -0.41715599
O       5.89757102     6.04276900     3.07507302     0.25647381    -0.64062350     1.46364164
O       0.03476202     1.39288797     3.19663499    -0.35591409    -0.39013265     0.34126471
O       2.98285701     7.88485898     1.38646699    -0.20472622    -0.60832400     0.32064599
O       3.00407897     3.21887599     1.37641903    -0.13059949    -0.45613084     0.85519962
O       0.02251300     7.91740301     1.45692599    -0.31952962     0.47817060    -1.09848109
O       0.04681102     3.18139500     1.40784797    -0.43897206     0.60202171     0.13471146
