# total energy = -4982.40701422 eV

CRYSTAL
PRIMVEC
        4.34044683     0.00000000     0.00000000
        0.00000000     2.91464116     0.00000000
        0.00000000    -0.00009341     5.78301861
PRIMCOORD
6 1
Ti      2.17022341     1.45727382     2.89150919     0.00000000     0.00000000     0.00000000
Ti      0.00000000     0.00000000     0.00000000     0.00000000     0.00000000     0.00000000
O       2.17022341     0.56800242     1.12702513     0.00000000    -0.24139788     2.20739033
O       2.17022341     2.34654527     4.65599325     0.00000000     0.24139788    -2.20739033
O       0.00000000     0.88923435     4.01853543     0.00000000     0.24133309     2.20875198
O       0.00000000     2.02531328     1.76448290     0.00000000    -0.24133309    -2.20875198
