# total energy = -39040.28679193 eV

CRYSTAL
PRIMVEC
        7.60629642    -0.00000847    -0.00005503
       -0.00000847     7.60629642    -0.00005503
       -3.80314186    -3.80314186     9.70738094
PRIMCOORD
46 1
Ti      1.91145533     4.75522574     6.06264461    -0.03924816    -0.04488839     0.07179165
Ti      3.80303982     6.64301761     1.21966882     0.00001800     0.05762384    -0.11543846
Ti      1.80730549     0.95771713     6.02841331     0.17928926     0.00763412    -0.01405237
Ti      3.80294605     2.86323465     1.21525841    -0.00005528    -0.06804298    -0.04809507
Ti     -1.91180022     4.75521936     6.06264551     0.03920805    -0.04504137     0.07205134
Ti     -0.00009998     6.68016476     1.32639962     0.00009076     0.00685302     0.09399905
Ti     -1.80744643     0.95770759     6.02852906    -0.17838397     0.00759273    -0.01421949
Ti     -0.00018358     2.83526707     1.17772002    -0.00011313    -0.18489118     0.03549486
Ti      3.80319798     0.87089288     8.58285012    -0.00043040     0.27640732    -0.01575213
Ti      5.71221730     2.85284575     3.62747689    -0.04351825     0.03491739    -0.00483728
Ti      3.80326989    -2.77830188     8.47459000    -0.00020235    -0.28343389    -0.06847570
Ti      5.68793458    -0.95232711     3.63612916    -0.07219815    -0.03489065     0.14135596
Ti      0.00015131     0.96719115     8.46733054     0.00026534    -0.05374019     0.02322093
Ti      1.89440824     2.85288402     3.62748560     0.04340024     0.03520947    -0.00485373
Ti      0.00012195    -2.85879678     8.50372913    -0.00022523     0.01439715    -0.02138747
Ti      1.91865351    -0.95231154     3.63613442     0.07154251    -0.03482509     0.14135905
O       1.96153563     2.83017461     5.66733525     0.07339191     0.06679960    -0.12383980
O       3.80319305     4.75299744     0.78394484    -0.00010156     0.00347253     0.00194401
O       1.97507025    -0.92673019     5.68439501     0.14029075    -0.06734519    -0.00436136
O       3.80319045     0.95089801     0.77857267    -0.00009385    -0.00884794    -0.04731012
O      -1.96146828     2.83018255     5.66734756    -0.07376806     0.06660342    -0.12378709
O       0.00007453     4.84826481     0.76391913     0.00000874    -0.12393005     0.24471049
O      -1.97500966    -0.92672377     5.68441274    -0.14054555    -0.06738941    -0.00421892
O       0.00008988     0.86335266     0.73857680     0.00004525     0.16862535     0.17388763
O       5.71145757     4.75521878     4.07870526     0.02613707    -0.02003250     0.03136053
O       3.80310051    -0.95660659     8.92140714    -0.00003497     0.03558254    -0.05434980
O       5.67510096     0.95076348     4.05480418     0.02992688     0.02069919    -0.05936191
O      -0.00002009     2.83091010     8.89033895     0.00009642     0.08264608     0.04332156
O       1.89472037     4.75522869     4.07873123    -0.02608874    -0.02001193     0.03138315
O      -0.00003573    -0.93292925     8.88214648     0.00001491    -0.04027146    -0.07222746
O       1.93110679     0.95076787     4.05484153    -0.02954481     0.02072464    -0.05970567
O       2.02072423     1.01434055     8.03222762    -0.16169314     0.18661768    -0.04378745
O       3.80314792     2.85812537     3.20034660    -0.00002005     0.05434106    -0.14466574
O       1.92240820    -2.91693363     8.09732009    -0.08981587    -0.10320823    -0.05125239
O       3.80315698    -0.95569587     3.21565690     0.00004757    -0.05510750     0.01181062
O      -2.02073871     1.01434584     8.03219947     0.16120669     0.18671795    -0.04346529
O       0.00000084     2.84603043     3.22186687     0.00011056    -0.03724064     0.06439485
O      -1.92235942    -2.91693013     8.09734883     0.08959347    -0.10318278    -0.05133184
O       0.00000261    -0.94358724     3.27767024    -0.00005528     0.05126242     0.05076979
O       3.80314056     4.72413898     6.47585236    -0.00016815     0.01549219     0.01636713
O       5.69703755     6.65594493     1.63953215    -0.04891217    -0.00306321     0.13926900
O       5.72570751     2.85331639     1.61453118    -0.10047464     0.01016872    -0.02864776
O      -0.00000598     4.76082055     6.49075613     0.00007610     0.04183855    -0.02656233
O       1.90922386     6.65594836     1.63954068     0.04934309    -0.00308867     0.13926077
O      -0.00006762     0.94381037     6.51209288     0.00111766    -0.05997795    -0.25313831
O       1.88059538     2.85332932     1.61457402     0.10047052     0.01022425    -0.02862770
