# total energy = -19950.13874750 eV

CRYSTAL
PRIMVEC
        5.71403071     0.00000000     0.00000000
        0.00002414     4.49498972     0.00000000
        0.00000000     0.00000000     9.09761714
PRIMCOORD
24 1
Ti      2.07107563     2.66372678     3.37515107    -0.29671236     1.56396535    -2.77960600
Ti      3.64297928     1.83126309     5.72246612     0.29671236    -1.56396535     2.77960600
Ti      4.92799230     1.83126466     1.17362118    -0.29584924    -1.56343699     2.78012922
Ti      0.78606261     2.66372542     7.92399612     0.29584924     1.56343699    -2.78012922
Ti      2.07106366     0.41623202     1.17365765    -0.29671236     1.56396535     2.77960600
Ti      3.64299125     4.07875800     7.92395965     0.29671236    -1.56396535    -2.77960600
Ti      0.78605064     0.41623031     5.72242965     0.29584924     1.56343699     2.78012922
Ti      4.92800427     4.07875972     3.37518755    -0.29584924    -1.56343699    -2.78012922
O       1.80853533     1.58276232     4.64244440     0.90289258    -1.54979240     1.92069191
O       3.90551963     2.91222755     4.45517280    -0.90289258     1.54979240    -1.92069191
O       1.04853049     1.58278046     0.09366508    -0.90208499    -1.55141554     1.92203068
O       4.66552452     2.91220947     9.00395186     0.90208499     1.55141554    -1.92203068
O       3.90550766     0.66473264     0.09363557    -0.90289258     1.54979240     1.92069191
O       1.80854730     3.83025724     9.00398137     0.90289258    -1.54979240    -1.92069191
O       4.66551255     0.66471456     4.64247391     0.90208499     1.55141554     1.92203068
O       1.04854236     3.83027537     4.45514328    -0.90208499    -1.55141554    -1.92203068
O       0.20761865     2.73410755     2.45749336     1.15812145    -0.50839084     0.81645874
O       5.50643631     1.76088232     6.64012384    -1.15812145     0.50839084    -0.81645874
O       3.06464016     1.76084040     2.09134417     1.15790599     0.50849137    -0.81659347
O       2.64941479     2.73414953     7.00627287    -1.15790599    -0.50849137     0.81659347
O       0.20760668     0.48661269     2.09131511     1.15812145    -0.50839084    -0.81645874
O       5.50644828     4.00837724     7.00630193    -1.15812145     0.50839084     0.81645874
O       2.64940283     0.48665461     6.64015285    -1.15790599    -0.50849137    -0.81659347
O       3.06465213     4.00833526     2.45746430     1.15790599     0.50849137     0.81659347
