# total energy = -4988.06874709 eV

CRYSTAL
PRIMVEC
        3.10500375     0.00000000     0.00000000
        1.42740560     4.65096464     0.00000000
       -0.00000951    -0.00006376     4.92199457
PRIMCOORD
6 1
Ti      2.26619998     2.32545049     2.46099729     0.00000000     0.00000000     0.00000000
Ti      0.00000000     0.00000000     0.00000000     0.00000000     0.00000000     0.00000000
O       1.83068036     0.90639218     0.95922423    -0.66876064     0.41260822     0.21188778
O       2.70171966     3.74450879     3.96277029     0.66876064    -0.41260822    -0.21188778
O       0.43551572     1.41903250     3.42022261     0.66861768    -0.41319237     0.21221276
O       0.99188057     3.23186824     1.50177196    -0.66861768     0.41319237    -0.21221276
