# total energy = -4988.69431327 eV

CRYSTAL
PRIMVEC
        3.14559836     0.00000000     0.00000000
        0.97597636     4.83108346     0.00000000
       -0.00000650    -0.00006453     4.95375844
PRIMCOORD
6 1
Ti      2.06078405     2.41550947     2.47687933     0.00000000     0.00000000     0.00000000
Ti      0.00000000     0.00000000     0.00000000     0.00000000     0.00000000     0.00000000
O       1.76300128     0.94149448     0.96541462     0.08216503    -0.17645128    -0.31849964
O       2.35856683     3.88952445     3.98834404    -0.08216503     0.17645128     0.31849964
O       0.29778011     1.47398885     3.44229484    -0.08138033     0.17522692    -0.31708373
O       0.67818974     3.35702997     1.51146382     0.08138033    -0.17522692     0.31708373
