# total energy = -19939.06640675 eV

CRYSTAL
PRIMVEC
        4.91287608     0.00000000     0.00000000
        1.77571839     4.91803106     0.00000000
        0.00000000     0.00000000     8.93496761
PRIMCOORD
24 1
Ti      2.83297043     2.91442057     3.31480927     3.51752317    -2.94620609     1.14989109
Ti      3.85562421     2.00361035     5.62015844    -3.51752317     2.94620609    -1.14989109
Ti      4.96046836     2.00361202     1.15263891    -6.93003987     1.05199322     2.26420530
Ti      1.72812630     2.91441905     7.78232890     6.93003987    -1.05199322    -2.26420530
Ti      1.94511136     0.45540517     1.15267473     3.51761161    -2.94604720    -1.14973323
Ti      4.74348330     4.46262585     7.78229307    -3.51761161     2.94604720     1.14973323
Ti      0.84026713     0.45540336     5.62012262     6.93024556    -1.05172171     2.26410066
Ti      5.84832753     4.46262771     3.31484509    -6.93024556     1.05172171    -2.26410066
O       2.18021697     1.73172228     4.55944558    -1.28130434    -0.07348730    -1.10504101
O       4.50837767     3.18630864     4.37552213     1.28130434     0.07348730     1.10504101
O       1.52677830     1.73174212     0.09199052     1.61496783    -0.69739219    -0.91849583
O       5.16181640     3.18628884     8.84297694    -1.61496783     0.69739219     0.91849583
O       3.62051858     0.72729314     0.09196153     1.28147480     0.07372641    -1.10491811
O       3.06807606     4.19073778     8.84300593    -1.28147480    -0.07372641     1.10491811
O       4.27395731     0.72727330     4.55947458    -1.61472126     0.69729809    -0.91825467
O       2.41463728     4.19075763     4.37549313     1.61472126    -0.69729809     0.91825467
O       1.25858870     2.99142520     2.41355766    -0.23916976    -2.28496440    -2.36436112
O       5.43000594     1.92660573     6.52141004     0.23916976     2.28496440     2.36436112
O       3.33055328     1.92655991     2.05395459     1.99004204    -2.52441261    -3.15527568
O       3.35804136     2.99147101     6.88101297    -1.99004204     2.52441261     3.15527568
O       0.37072961     0.53240970     2.05392604    -0.23899030    -2.28492789     2.36401942
O       6.31786503     4.38562122     6.88104152     0.23899030     2.28492789    -2.36401942
O       2.47018227     0.53245551     6.52143849    -1.98977773     2.52426631    -3.15511936
O       4.21841237     4.38557541     2.41352916     1.98977773    -2.52426631     3.15511936
