# total energy = -39036.45482926 eV

CRYSTAL
PRIMVEC
        7.60600008     0.00000000     0.00000000
        0.00000000     7.60600008     0.00000000
       -3.79573973    -3.79573973     9.71340985
PRIMCOORD
46 1
Ti      1.91698242     4.71757147     6.14590062     0.27794921     0.59609532    -0.06419996
Ti      3.73739201     6.86923200     1.13363700     0.17035930    -0.13460167     0.71005822
Ti      2.02192743     0.69268947     6.06778162    -0.67111962    -0.98211858     1.09760923
Ti      3.75832700     2.89909301     1.23855899     0.72421087    -0.97056635     1.63821550
Ti     -1.90113955     4.78548846     6.07867960     0.05636426    -0.62117593    -1.73206337
Ti     -0.04308598     6.73360598     1.13607497    -0.17524723     0.84658102    -0.62608314
Ti     -1.88944557     0.92662942     6.12798061     0.35609021     0.13219255    -0.55114651
Ti     -0.15638500     2.93326998     1.24225201    -0.41146768    -0.44805706    -0.10583102
Ti      3.84161643     0.96534842     8.52765762    -0.23458728     1.63491908    -0.05138506
Ti      5.71735801     2.83620300     3.75006999    -1.02988532     0.24137834    -0.49409448
Ti      3.98323845    -2.67608253     8.43834462    -2.90081248    -1.25930417     1.24465890
Ti      5.69242699    -0.90752702     3.60314398     0.09929141    -0.19917418     0.32222542
Ti      0.06143145     0.97314744     8.36694263     0.14151846     0.83305804     0.19347430
Ti      1.81940098     2.66973299     3.48877401     0.44014937     0.99507643     0.89225386
Ti     -0.00809355    -2.73688357     8.44203463     1.80577641    -0.56854285     1.04490057
Ti      1.86244902    -1.12429999     3.63242103     0.10098448    -0.60493478     0.57099774
O       1.71575346    -1.12070756     5.68629864     0.33310608     0.74746573    -1.10338265
O       3.66370202     1.07726899     0.85037398    -0.40592283    -0.91532823    -1.39090819
O      -1.94367455     2.82202745     5.65581861    -0.21844512    -0.10748681     0.97671926
O       0.11779099     4.83910899     0.76865700    -1.11571032    -0.77565018     0.25813474
O      -1.78503753    -1.01847454     5.68461263     0.11957562     0.94162446     0.10807328
O       0.03432000     1.02977501     0.68373601     0.05226001    -0.30337974     0.43273431
O       3.60868446     2.96694946     8.88183162     0.55042660    -0.76069843     0.11076805
O       5.66942900     4.73430300     4.10218501    -0.34578394     1.02003414    -0.45150311
O       3.96520943    -0.83361255     8.98970562     0.10194145    -0.75847237    -0.66395576
O       5.92477200     1.01377301     4.17204101    -0.44970642    -2.15348533    -0.36590745
O       0.20162447     2.78221348     8.99465162    -0.34559342     0.50814273    -0.01998519
O       1.94462998     4.48430998     4.15580199     0.01001265     0.24488738    -0.45847466
O      -0.13067254    -0.77580454     9.05786560    -0.07544082    -0.20606602    -1.77888574
O       1.77888902     0.93362102     4.22390800    -0.06515512     0.33889543    -1.24846285
O       1.96817143     0.89941945     8.05933861    -0.31033921     0.09563710     0.11165148
O       3.86477699     2.70802103     3.22162501    -2.15164262     0.49905722     0.03551106
O       1.99272446    -2.64657556     8.07614063    -1.62395975    -0.00385846     0.39451381
O       3.68757400    -0.84900002     3.32659801     0.46419716    -0.35332524    -0.43172026
O      -1.95167454     1.20702447     8.07989662     1.11595355    -0.21060839    -0.42494360
O      -0.11100498     3.03053302     3.22503699     0.72420752    -0.19901246    -0.06262155
O      -1.88818555    -3.05209456     7.98708465     1.50880206     0.54581815     1.01072777
O      -0.07034200    -1.06119999     3.13120000     0.94643242     0.04305597     0.44656916
O       3.79815246     4.75747445     6.45431163     0.93615546    -0.21536571    -0.13597181
O       5.67451598    -0.58929401     1.66725299    -0.68205787    -1.08563586     0.10944239
O       3.82754646     0.50649745     6.48680560     0.55955427     1.01211899    -0.24691418
O       5.61464402     2.59431602     1.63627601     0.43267183     1.32620301    -0.82445950
O       0.08894247     4.56011447     6.43854961    -1.11430135    -0.34117137     1.03004344
O       1.90374902     6.48517198     1.50652699     0.35452080     0.53244481     0.85450722
O       0.09175145     0.88969846     6.45347765    -0.93831493     0.31772573     0.30820648
O       1.64427802     2.59139602     1.69658200     2.88298264     0.72560826    -0.66909514
