# total energy = -19956.10301884 eV

CRYSTAL
PRIMVEC
        5.93400000     0.00000000     0.00000000
        0.00000000     9.29699974     0.00000000
        0.00000000     0.00000000     4.64899994
PRIMCOORD
24 1
Ti      4.50347800     6.97997498     2.60516299     0.17139546     1.20036418    -1.31511127
Ti      4.43650300     2.47062200     2.14118202     0.90813763    -0.67866916     0.94562227
Ti      1.54075301     6.35398100     2.21354198    -0.65195153     3.57406740     1.78847391
Ti      1.49956201     2.51565298     2.35506398    -0.40423516    -1.82573049    -0.27777823
Ti      3.05017100     4.58031898     0.07163700     3.13763045     2.21985247    -1.19929948
Ti      2.77155600     0.34495102     4.43297900     0.11852173    -2.85368054     1.11052080
Ti      0.04411301     4.38419002     4.63586698    -2.38579693     2.65238392    -0.75615092
Ti      5.83891802     0.25668600     4.59138498     1.02442532    -1.68306892    -1.12014290
O       4.51178201     5.32605101     1.03412300     0.32484435    -0.23581396    -1.01522489
O       4.33938903     1.11822800     0.79415699     0.68605285     0.67040794     1.17754280
O       1.52350702     5.41116701     0.72110000    -1.05080048     0.06641985     0.47576842
O       1.47449499     1.35308300     0.70810002    -1.02870287    -0.50330931     1.11675959
O       4.35552200     8.60731801     3.73192201     0.95209297    -0.87762042     0.53816474
O       4.48253502     3.65158798     3.64253202    -0.36496437    -0.48963233     1.55729437
O       1.40031598     8.70822899     3.71365598    -0.62160890    -0.68670848     1.69614787
O       1.60519399     3.71970199     3.81092299    -0.50351140    -1.62259167    -1.18984322
O       3.11157001     5.94400500     3.53916401    -0.54708648     0.57183130    -1.26191101
O       2.84404598     1.32022098     3.01144899     1.36886046     2.55726463    -1.88566396
O       5.84143801     5.87962201     3.28789298     1.36720724    -1.74776716     2.04230102
O       5.90236700     1.46807200     3.21557498    -0.38843881     0.96565914    -1.32458707
O       2.93201398     7.43729398     1.71918401     0.30502936     1.04790259    -1.17420217
O       2.95444601     3.34279501     1.43568698    -0.29620302    -1.70589030     2.10816988
O       0.22474899     7.55210502     1.65107901    -1.19696312     0.87850102    -0.59836380
O       0.10796798     3.55247102     1.74193800    -0.92393475    -1.49417196    -1.43848673
