# total energy = -4990.51603379 eV

CRYSTAL
PRIMVEC
        3.80789896     0.00000000     0.00000000
        0.37983146     3.78890783     0.00000000
       -2.09389898    -1.89448447     4.86582768
PRIMCOORD
6 1
Ti      0.28472768     2.84182500     1.21645668    -0.00036098     0.00036098     0.00000000
Ti      1.80910342    -0.94740195     3.64937041     0.00036098    -0.00036098     0.00000000
O       0.09499801     0.94722097     0.79260348    -0.00014501    -0.00004808    -0.10631618
O       1.99883298     0.94720199     4.07322372     0.00014501     0.00004808     0.10631618
O      -0.09497693    -0.94720190     3.22551722    -0.00004808    -0.00014501    -0.10631618
O       2.18880787     2.84162480     1.64030998     0.00004808     0.00014501     0.10631618
