# total energy = -4984.89726567 eV

CRYSTAL
PRIMVEC
        4.21008291     0.00000000     0.00000000
        1.80323998     3.80435589     0.00000000
       -3.00670130    -1.90220316     5.52148108
PRIMCOORD
6 1
Ti      1.35232363     2.85341334     1.38037021     0.00009436    -0.00009436     0.00000000
Ti      1.65429824    -0.95126039     4.14111053    -0.00009436     0.00009436     0.00000000
O       0.45085372     0.95108398     0.89940408    -0.00062169    -0.00080887    -1.93366287
O       2.55576800     0.95106884     4.62207671     0.00062169     0.00080887     1.93366287
O      -0.45081579    -0.95106002     3.66014445    -0.00080887    -0.00062169    -1.93366287
O       3.45743744     2.85321280     1.86133634     0.00080887     0.00062169     1.93366287
