# total energy = -19953.00472330 eV

CRYSTAL
PRIMVEC
        6.09186047     0.00000000     0.00000000
        0.00002833     5.30474890     0.00000000
        0.00000000     0.00000000    10.01202112
PRIMCOORD
24 1
Ti      2.20802319     3.14358918     3.71438855     0.16020550    -0.14186633    -0.00215639
Ti      3.88386566     2.16115950     6.29763296    -0.16020550     0.14186633     0.00215639
Ti      5.25384788     2.16116121     1.29158220     0.16118663     0.14175500     0.00230577
Ti      0.83804097     3.14358763     8.72043943    -0.16118663    -0.14175500    -0.00230577
Ti      2.20800926     0.49121484     1.29162235     0.16042558    -0.16469747     0.00073431
Ti      3.88387960     4.81353400     8.72039928    -0.16042558     0.16469747    -0.00073431
Ti      0.83802704     0.49121290     6.29759282    -0.16156998    -0.16462805     0.00114028
Ti      5.25386182     4.81353589     3.71442870     0.16156998     0.16462805    -0.00114028
O       1.92812229     1.86789219     5.10905789     0.84467147     0.62400054    -0.15489051
O       4.16376656     3.43685649     4.90296362    -0.84467147    -0.62400054     0.15489051
O       1.11786349     1.86791362     0.10307938    -0.84499645     0.62448005    -0.15550680
O       4.97402542     3.43683511     9.90894185     0.84499645    -0.62448005     0.15550680
O       4.16375263     0.78448198     0.10304688    -0.84445961    -0.62480864    -0.15515302
O       1.92813623     4.52026669     9.90897435     0.84445961     0.62480864     0.15515302
O       4.97401143     0.78446060     5.10909039     0.84420121    -0.62429827    -0.15518053
O       1.11787732     4.52028813     4.90293112    -0.84420121     0.62429827     0.15518053
O       0.22134850     3.22664901     2.70449678    -0.33827425    -0.06106655     0.19421709
O       5.87054035     2.07809966     7.30752473     0.33827425     0.06106655    -0.19421709
O       3.26728483     2.07805036     2.30154583    -0.33842646     0.06134629    -0.19434539
O       2.82460402     3.22669832     7.71047552     0.33842646    -0.06134629     0.19434539
O       0.22133451     0.57427451     2.30151383    -0.33879259    -0.06133549    -0.19437136
O       5.87055435     4.73047417     7.71050751     0.33879259     0.06133549     0.19437136
O       2.82459003     0.57432381     7.30755667     0.33855682    -0.06114780    -0.19443872
O       3.26729883     4.73042486     2.70446479    -0.33855682     0.06114780     0.19443872
