# total energy = -4937.31220220 eV

CRYSTAL
PRIMVEC
        4.90320893     0.00000000     0.00000000
       -0.00000678     2.36080415     0.00000000
       -2.45163194    -1.18046803     5.28233422
PRIMCOORD
6 1
Ti     -0.00020947     1.77068139     1.32058328    -0.03036397    -0.02661144    51.31654105
Ti      2.45177964    -0.59034543     3.96175029     0.03036397     0.02661144   -51.31654105
O       0.00005218     0.59018972     0.86044895     0.02907585     0.02652145   -41.89673651
O       2.45151784     0.59014615     4.42188466    -0.02907585    -0.02652145    41.89673651
O      -0.00002003    -0.59021656     3.50161596    -0.00114800     0.00058878    -0.64581456
O       2.45159000     1.77055242     1.78071765     0.00114800    -0.00058878     0.64581456
