# total energy = -4977.44776177 eV

CRYSTAL
PRIMVEC
        2.55145890     0.00000000     0.00000000
        0.00000000     3.99775358     0.00000000
        0.00000000    -0.00005188     3.99775358
PRIMCOORD
6 1
Ti      1.27572940     1.99885080     1.99887674     0.00000000     0.00000000     0.00000000
Ti      0.00000000     0.00000000     0.00000000     0.00000000     0.00000000     0.00000000
O       1.27572940     0.77909317     0.77910328    -0.00000000     2.91955634     2.91955634
O       1.27572940     3.21860844     3.21865021    -0.00000000    -2.91955634    -2.91955634
O       0.00000000     1.21973660     2.77798084     0.00000000    -2.92238019     2.92238019
O       0.00000000     2.77796501     1.21977265     0.00000000     2.92238019    -2.92238019
