# total energy = -19936.08052787 eV

CRYSTAL
PRIMVEC
        5.44618552     0.00000000     0.00000000
        0.00002301     4.28428708     0.00000000
        0.00000000     0.00000000     8.67116634
PRIMCOORD
24 1
Ti      1.97399396     2.53886459     3.21694087    -0.78273588     2.51529084    -4.69737791
Ti      3.47221462     1.74542263     5.45422552     0.78273588    -2.51529084     4.69737791
Ti      4.69699266     1.74542412     1.11860768    -0.77910317    -2.51589917     4.69207115
Ti      0.74921592     2.53886329     7.55255880     0.77910317     2.51589917    -4.69207115
Ti      1.97398255     0.39672115     1.11864245    -0.78275439     2.51541451     4.68914035
Ti      3.47222603     3.88756622     7.55252404     0.78275439    -2.51541451    -4.68914035
Ti      0.74920451     0.39671951     5.45419076     0.77913839     2.51542840     4.70027066
Ti      4.69700407     3.88756786     3.21697563    -0.77913839    -2.51542840    -4.70027066
O       1.72376024     1.50857034     4.42482981     0.89939613    -2.98423504     3.35203328
O       3.72244839     2.77571688     4.24633658    -0.89939613     2.98423504    -3.35203328
O       0.99938062     1.50858762     0.08927453    -0.89945629    -2.98553962     3.35286658
O       4.44682806     2.77569965     8.58189161     0.89945629     2.98553962    -3.35286658
O       3.72243699     0.63357330     0.08924640    -0.89909120     2.98474180     3.35215258
O       1.72377164     3.65071393     8.58191975     0.89909120    -2.98474180    -3.35215258
O       4.44681665     0.63355606     4.42485795     0.89941233     2.98542700     3.35287249
O       0.99939193     3.65073121     4.24630844    -0.89941233    -2.98542700    -3.35287249
O       0.19788652     2.60594626     2.34229836     2.61515278    -0.94996486     1.15442292
O       5.24832211     1.67834097     6.32886803    -2.61515278     0.94996486    -1.15442292
O       2.92098515     1.67830101     1.99331241     2.61660392     0.95025283    -1.15463118
O       2.52522348     2.60598627     6.67785383    -2.61660392    -0.95025283     1.15463118
O       0.19787511     0.46380272     1.99328472     2.61532685    -0.94995278    -1.15465766
O       5.24833352     3.82048455     6.67788153    -2.61532685     0.94995278     1.15465766
O       2.52521207     0.46384268     6.32889568    -2.61674918    -0.95016824    -1.15444503
O       2.92099656     3.82044455     2.34227066     2.61674918     0.95016824     1.15444503
