# total energy = -19943.45732987 eV

CRYSTAL
PRIMVEC
        5.43778117     0.00000000     0.00000000
        2.47888184     5.22968886     0.00000000
        0.00000000     0.00000000    10.00136466
PRIMCOORD
24 1
Ti      3.43991716     3.09910875     3.71043493     2.20929397    -3.76543751     1.08247828
Ti      4.47674567     2.13058004     6.29092978    -2.20929397     3.76543751    -1.08247828
Ti      5.69963449     2.13058181     1.29020748    -4.82891199     0.10908938     1.23683092
Ti      2.21702844     3.09910718     8.71115740     4.82891199    -0.10908938    -1.23683092
Ti      2.20047637     0.48426440     1.29024756     2.20929397    -3.76543751    -1.08247828
Ti      5.71618649     4.74542455     8.71111731    -2.20929397     3.76543751     1.08247828
Ti      0.97758752     0.48426247     6.29088970     4.82891199    -0.10908938     1.23683092
Ti      6.93907540     4.74542647     3.71047507    -4.82891199     0.10908938    -1.23683092
O       2.59394845     1.84146233     5.10361983     0.82200873     1.62469766    -1.19900406
O       5.32271437     3.38822646     4.89774493    -0.82200873    -1.62469766     1.19900406
O       1.87069672     1.84148345     0.10296967     1.01057016    -0.87451916     0.47244090
O       6.04596618     3.38820543     9.89839482    -1.01057016     0.87451916    -0.47244090
O       4.08327356     0.77338201     0.10293718    -0.82200873    -1.62469766    -1.19900406
O       3.83338928     4.45630684     9.89842726     0.82200873     1.62469766     1.19900406
O       4.80652536     0.77336093     5.10365227    -1.01057016     0.87451916     0.47244090
O       3.11013743     4.45632793     4.89771244     1.01057016    -0.87451916    -0.47244090
O       1.70536358     3.18099325     2.70161811     0.51544338     0.72068100     0.73067257
O       6.21129919     2.04869555     7.29974665    -0.51544338    -0.72068100    -0.73067257
O       3.88753073     2.04864688     2.29909605     1.67277936     0.23123225    -0.64472853
O       4.02913210     3.18104191     7.70226849    -1.67277936    -0.23123225     0.64472853
O       0.46592276     0.56614875     2.29906411     0.51544338     0.72068100    -0.73067257
O       7.45074002     4.66354006     7.70230044    -0.51544338    -0.72068100     0.73067257
O       2.78969127     0.56619740     7.29977849    -1.67277936    -0.23123225    -0.64472853
O       5.12697156     4.66349139     2.70158617     1.67277936     0.23123225     0.64472853
