# total energy = -19516.81049955 eV

CRYSTAL
PRIMVEC
        5.17600016     0.00000000     0.00000000
        0.00000000     5.50899976     0.00000000
        0.00000000     0.00000000     9.26300011
PRIMCOORD
23 1
Ti      1.91047503     3.24025898     3.33525302    -0.62981175    -0.54379315     3.38915334
Ti      3.29842101     2.36623200     5.87354701    -0.29308144    -0.80639827    -2.45556152
Ti      4.37559703     2.06903801     1.55641899     0.54796811    -1.75117516    -0.99263748
Ti      0.94019298     3.29135602     7.88540498    -0.97366916     0.60394927    -0.22823614
Ti      1.98977599     0.25532099     1.31177098    -0.67504621     0.51124066    -0.87289782
Ti      3.24775102     5.22550898     7.90019099     0.42436048     0.70717704     1.11352745
Ti      0.62873798     0.59046301     5.94558602    -0.74458147     0.04006320    -3.44996998
Ti      4.43098802     4.86088299     3.37685598     1.66772149     1.09982347     2.86423775
O       1.58104298     2.11536198     4.84036399     0.65041658    -0.31449386    -0.21702613
O       3.54982699     3.62050999     4.54948499    -0.03279829     0.41168108    -1.37783567
O       0.28870000     2.40837197     0.05795999     0.78861137     0.33305157    -0.29416182
O       3.47505101     0.90492898     0.17545602    -0.82682029    -0.47743398    -0.29552836
O       1.65256599     4.71850801     8.96276399     0.21318310     0.43258852     0.88778065
O       4.33848101     0.79092800     4.73572802    -1.36219693     0.25529444     0.26265577
O       0.94095298     4.86004102     4.34703299     1.05749975    -1.16466826     0.40837644
O       0.21895301     3.15955702     2.60687297    -0.40222044     1.52479792    -0.06253362
O       4.97485798     2.25132301     6.66370802     0.55765834    -0.62343490     1.08839928
O       2.70798398     1.69559599     2.38835098    -0.45759097     0.74788097     0.24047614
O       2.62133602     3.75452502     6.92348499    -1.14927428    -1.61070263     0.73904254
O       0.18734499     0.62280702     2.26823700     0.48029356    -0.03711697    -2.19046115
O       4.96250598     4.77834298     7.17270599     0.60701968     0.48294874     0.49347021
O       2.40740802     0.82739599     6.78340998    -0.21039036     0.60034767     0.51481449
O       2.91746102     4.39620901     2.07151398     0.76274940    -0.42162688     0.43491537
