# total energy = -19933.57517844 eV

CRYSTAL
PRIMVEC
        6.05060007     0.00000000     0.00000000
        1.58518011     6.24151662     0.00000000
        0.00000000     0.00000000    10.91617731
PRIMCOORD
24 1
Ti      3.13242784     3.69871715     4.04982413    -0.02885782    -2.00610527     0.82759548
Ti      4.50335251     2.54279988     6.86635379     0.02885782     2.00610527    -0.82759548
Ti      5.86405625     2.54280204     1.40822125    -0.24773771    -0.50066905    -0.07351069
Ti      1.77172414     3.69871524     9.50795680     0.24773771     0.50066905     0.07351069
Ti      2.33983792     0.57795889     1.40826502    -0.02885782    -2.00610527    -0.82759548
Ti      5.29594247     5.66355838     9.50791303     0.02885782     2.00610527     0.82759548
Ti      0.97913409     0.57795649     6.86631003     0.24773771     0.50066905    -0.07351069
Ti      6.65664629     5.66356072     4.04986790    -0.24773771    -0.50066905     0.07351069
O       2.47322200     2.19774424     5.57044198     1.74242055     1.98808235    -0.64108296
O       5.16255830     4.04377280     5.34573594    -1.74242055    -1.98808235     0.64108296
O       1.66845759     2.19776943     0.11238819    -0.66997805     0.04428598     0.95956691
O       5.96732284     4.04374771    10.80378942     0.66997805    -0.04428598    -0.95956691
O       4.36996835     0.92301435     0.11235278    -1.74242055    -1.98808235    -0.64108296
O       3.26581201     5.31850268    10.80382484     1.74242055     1.98808235     0.64108296
O       5.17473288     0.92298921     5.57047740     0.66997805    -0.04428598     0.95956691
O       2.46104742     5.31852789     5.34570052    -0.66997805     0.04428598    -0.95956691
O       1.18402870     3.79644436     2.94873200     0.45319335     1.51102015     1.58257398
O       6.45175160     2.44507267     7.96744593    -0.45319335    -1.51102015    -1.58257398
O       3.86611336     2.44501447     2.50939171     0.77284124     1.50255247     0.66347136
O       3.76966700     3.79650262     8.40678603    -0.77284124    -1.50255247    -0.66347136
O       0.39143875     0.67568592     2.50935684     0.45319335     1.51102015    -1.58257398
O       7.24434162     5.56583117     8.40682090    -0.45319335    -1.51102015     1.58257398
O       2.97707704     0.67574411     7.96748073    -0.77284124    -1.50255247     0.66347136
O       4.65870331     5.56577291     2.94869713     0.77284124     1.50255247    -0.66347136
