# total energy = -19954.77831543 eV

CRYSTAL
PRIMVEC
        4.86672830     0.00000000     0.00000000
        0.25884844     5.17319873     0.00000000
        0.00000000     0.00000000     8.71309720
PRIMCOORD
24 1
Ti      1.91734822     3.06563265     3.23249691     0.49308712     0.39320512    -0.39609427
Ti      3.20822833     2.10756589     5.48060038    -0.49308712    -0.39320512     0.39609427
Ti      4.30269387     2.10756765     1.12401692    -0.63606545    -0.74629125     0.95394853
Ti      0.82288273     3.06563108     7.58908048     0.63606545     0.74629125    -0.95394853
Ti      1.78792410     0.47903348     1.12405183     0.49312131     0.39145266     0.38113173
Ti      3.33765245     4.69416520     7.58904556    -0.49312131    -0.39145266    -0.38113173
Ti      0.69345860     0.47903156     5.48056541     0.63603279     0.74205536     0.96955153
Ti      4.43211799     4.69416712     3.23253188    -0.63603279    -0.74205536    -0.96955153
O       1.63149510     1.82157114     4.44622681    -1.26243655    -1.03334654    -0.25022294
O       3.49408145     3.35162740     4.26687049     1.26243655     1.03334654     0.25022294
O       0.98418832     1.82159201     0.08970621     1.28236029    -1.18907215    -0.06324350
O       4.14138828     3.35160657     8.62339083    -1.28236029     1.18907215     0.06324350
O       3.36465733     0.76502808     0.08967796     1.26142173     1.03246774    -0.24985836
O       1.76091922     4.40817045     8.62341909    -1.26142173    -1.03246774     0.24985836
O       4.01196416     0.76500725     4.44625511    -1.28348798     1.18966993    -0.06375464
O       1.11361234     4.40819138     4.26684218     1.28348798    -1.18966993     0.06375464
O       0.33426578     3.14663261     2.35362497    -0.62056529    -0.03184750    -0.65439613
O       4.79131081     2.02656593     6.35947238     0.62056529     0.03184750     0.65439613
O       2.71159295     2.02651773     2.00295139    -0.22971838    -0.60032016    -0.08284046
O       2.41398364     3.14668081     6.71014576     0.22971838     0.60032016     0.08284046
O       0.20484166     0.56003329     2.00292358    -0.62163358    -0.03255532     0.65320443
O       4.92073493     4.61316524     6.71017356     0.62163358     0.03255532    -0.65320443
O       2.28455952     0.56008149     6.35950014     0.22862721     0.60076753    -0.08173437
O       2.84101707     4.61311704     2.35359711    -0.22862721    -0.60076753     0.08173437
