# total energy = -19958.67621758 eV

CRYSTAL
PRIMVEC
        5.72179418     0.00000000     0.00000000
        0.00002661     4.98249780     0.00000000
        0.00000000     0.00000000     9.40381423
PRIMCOORD
24 1
Ti      2.07389094     2.95262348     3.48874813    -0.07679322     0.55570816    -1.02452405
Ti      3.64792990     2.02987411     5.91506647     0.07679322    -0.55570816     1.02452405
Ti      4.93468890     2.02987572     1.21312160    -0.07499011    -0.55588454     1.02531647
Ti      0.78713194     2.95262203     8.19069311     0.07499011     0.55588454    -1.02531647
Ti      2.07387785     0.46137469     1.21315931    -0.07678654     0.55319028     1.02480482
Ti      3.64794299     4.52112306     8.19065540     0.07678654    -0.55319028    -1.02480482
Ti      0.78711885     0.46137286     5.91502877     0.07484510     0.55311803     1.02567822
Ti      4.93470199     4.52112483     3.48878583    -0.07484510    -0.55311803    -1.02567822
O       1.81099337     1.75442210     4.79869456     0.60924317    -0.27723881     0.53997866
O       3.91082747     3.22807548     4.60512004    -0.60924317     0.27723881    -0.53997866
O       1.04995590     1.75444224     0.09681755    -0.60895932    -0.27756097     0.53992004
O       4.67186500     3.22805540     9.30699678     0.60895932     0.27756097    -0.53992004
O       3.91081438     0.73682653     0.09678702    -0.60934653     0.27728098     0.54023320
O       1.81100646     4.24567105     9.30702731     0.60934653    -0.27728098    -0.54023320
O       4.67185185     0.73680645     4.79872509     0.60898324     0.27766947     0.54005605
O       1.04996888     4.24569119     4.60508951    -0.60898324    -0.27766947    -0.54005605
O       0.20790210     3.03063763     2.54020492     0.25203942    -0.21027646     0.34047923
O       5.51391874     1.95185996     6.86360968    -0.25203942     0.21027646    -0.34047923
O       3.06880491     1.95181365     2.16173229     0.25218623     0.21021116    -0.34073789
O       2.65301593     3.03068393     7.24208215    -0.25218623    -0.21021116     0.34073789
O       0.20788896     0.53938867     2.16170225     0.25198517    -0.21050941    -0.34041264
O       5.51393188     4.44310891     7.24211219    -0.25198517     0.21050941     0.34041264
O       2.65300278     0.53943498     6.86363967    -0.25227159    -0.21066753    -0.34048695
O       3.06881806     4.44306261     2.54017487     0.25227159     0.21066753     0.34048695
