# total energy = -19917.67010613 eV

CRYSTAL
PRIMVEC
        7.00279288     0.00000000     0.00000000
        0.00003256     6.09798238     0.00000000
        0.00000000     0.00000000    11.50914577
PRIMCOORD
24 1
Ti      2.53819489     3.61365859     4.26981114     0.37425043    -0.87173774     0.93322492
Ti      4.46463062     2.48432353     7.23933509    -0.37425043     0.87173774    -0.93322492
Ti      6.03946999     2.48432550     1.48471599     0.37417741     0.87177810    -0.93359310
Ti      0.96335551     3.61365681    10.02443037    -0.37417741    -0.87177810     0.93359310
Ti      2.53817887     0.56466753     1.48476214     0.37425043    -0.87173774    -0.93322492
Ti      4.46464664     5.53331479    10.02438422    -0.37425043     0.87173774     0.93322492
Ti      0.96333949     0.56466530     7.23928894    -0.37417741    -0.87177810    -0.93359310
Ti      6.03948602     5.53331695     4.26985729     0.37417741     0.87177810     0.93359310
O       2.21643964     2.14720317     5.87302917     0.96079307     1.41333439    -0.85144375
O       4.78638586     3.95077895     5.63611706    -0.96079307    -1.41333439     0.85144375
O       1.28502065     2.14722781     0.11849312    -0.96048351     1.41358070    -0.85219092
O       5.71780492     3.95075437    11.39065278     0.96048351    -1.41358070     0.85219092
O       4.78636984     0.90178770     0.11845576    -0.96079307    -1.41333439    -0.85144375
O       2.21645567     5.19619442    11.39069014     0.96079307     1.41333439     0.85144375
O       5.71778884     0.90176312     5.87306653     0.96048351    -1.41358070    -0.85219092
O       1.28503654     5.19621907     5.63607970    -0.96048351     1.41358070     0.85219092
O       0.25444735     3.70913859     3.10890751    -0.81676727     0.07477671     0.01671295
O       6.74837816     2.38884353     8.40023871     0.81676727    -0.07477671    -0.01671295
O       3.75585079     2.38878686     2.64570221    -0.81676110    -0.07458259    -0.01683868
O       3.24697472     3.70919526     8.86344382     0.81676110     0.07458259     0.01683868
O       0.25443126     0.66014733     2.64566544    -0.81676727     0.07477671    -0.01671295
O       6.74839425     5.43783479     8.86348060     0.81676727    -0.07477671     0.01671295
O       3.24695863     0.66020401     8.40027542     0.81676110     0.07458259    -0.01683868
O       3.75586688     5.43777811     3.10887074    -0.81676110    -0.07458259     0.01683868
