# total energy = -19069.45655776 eV

CRYSTAL
PRIMVEC
        5.17600016     0.00000000     0.00000000
        0.00000000     5.50899976     0.00000000
        0.00000000     0.00000000     9.26300011
PRIMCOORD
22 1
Ti      1.89033798     3.25773400     3.27469800    -1.23106059    -0.30743180     0.62208867
Ti      3.71010901     2.02822300     5.98549599     0.24858900     0.97692469     2.25412683
Ti      4.36697599     2.30150198     1.55999802     0.75798695     0.81639960    -0.19342828
Ti      1.16306503     3.17790301     8.03644699     0.07071410    -1.71064607    -2.48132347
Ti      1.62797100     0.55374700     1.17760099     1.76355759    -0.80903236    -0.64627916
Ti      3.29535099     5.34913500     7.87004598    -0.59934622     0.82433532    -0.31613088
Ti      0.66538499     0.08956801     6.19781100     2.12161367    -2.62651269    -1.92231813
Ti      4.28568002     5.09137302     3.48870500     1.79825541    -0.34266544     0.80630391
O       3.16094801     2.44189101     4.39717402    -0.20053198     1.04420689    -2.10018146
O       0.33108901     2.29205299     0.19596698     1.18008460    -0.14354988    -0.33476881
O       0.01644498     3.94084098     6.78777098    -2.40699722    -0.00702246     1.31066146
O       3.35772501     0.81032002     0.32428601     0.42639293    -1.57532449    -1.75685575
O       1.70170598     4.63021098     8.94284401     0.01846850     1.84176852     1.88446582
O       3.83783001     0.18401297     5.35375699     1.33967508    -0.10473444    -0.31288229
O       1.07271801     4.90624502     4.52813099    -1.88129334     0.40851862     0.61055598
O       0.25899501     3.84785898     2.39093400    -2.69024059    -1.60888691    -0.05578036
O       0.01467297     1.42378298     7.21128201    -2.46812317     0.46779980     0.09437161
O       2.56452398     2.30817898     1.71718198    -2.79283228     0.71062412     1.61465390
O       2.39733402     3.92684302     6.75222397     1.94207321     0.38105203     0.59314883
O       0.00664202     0.85328202     2.20619002    -0.11719915    -0.85773345     2.50616677
O       2.33832801     1.42689899     7.09904902    -0.06131081    -1.34558965     0.43689204
O       2.46633202     4.77819598     2.73324997     2.78152405     3.96749981    -2.61348748
