# total energy = -4882.70910090 eV

CRYSTAL
PRIMVEC
        5.21126404     0.00000000     0.00000000
       -0.00000676     1.97668608     0.00000000
       -2.60566326    -0.98843687     5.75136234
PRIMCOORD
6 1
Ti     -0.00022267     1.48257050     1.43784034    -0.05887828    -0.04975729   106.13442633
Ti      2.60581673    -0.49432154     4.31352156     0.05887828     0.04975729  -106.13442633
O       0.00005533     0.49415579     0.93684985     0.05744952     0.05056488   -99.25320992
O       2.60553859     0.49409313     4.81451209    -0.05744952    -0.05056488    99.25320992
O      -0.00002259    -0.49421024     3.81253102    -0.00073174    -0.00001800    -0.01508364
O       2.60561641     1.48245910     1.93883092     0.00073174     0.00001800     0.01508364
