# total energy = -4989.49571107 eV

CRYSTAL
PRIMVEC
        2.83330610     0.00000000     0.00000000
        0.00000000     4.43936589     0.00000000
        0.00000000    -0.00005761     4.43936589
PRIMCOORD
6 1
Ti      1.41665300     2.21965409     2.21968290     0.00000000     0.00000000     0.00000000
Ti      0.00000000     0.00000000     0.00000000     0.00000000     0.00000000     0.00000000
O       1.41665300     0.86515579     0.86516701     0.00000000     0.59993038     0.59993038
O       1.41665300     3.57415239     3.57419878    -0.00000000    -0.59993038    -0.59993038
O       0.00000000     1.35447495     3.08485081     0.00000000    -0.59990467     0.59990467
O       0.00000000     3.08483323     1.35451498     0.00000000     0.59990467    -0.59990467
