# total energy = -19959.99960627 eV

CRYSTAL
PRIMVEC
        5.93400000     0.00000000     0.00000000
        0.00000000     9.29699974     0.00000000
        0.00000000     0.00000000     4.64899994
PRIMCOORD
24 1
Ti      4.46283899     6.81481601     2.16893202    -0.14064839     0.43997351     0.05780151
Ti      4.41826702     2.29331900     2.27614698    -0.51634301     3.42989094     0.14602072
Ti      1.46043200     7.01122697     2.39823998     0.05135369     0.12608900    -0.68717051
Ti      1.41961201     2.24251798     2.39766598     0.74147943     1.19732256    -0.63603922
Ti      2.91394300     4.70392399     4.57104198     0.94204843    -1.08134957     0.66431494
Ti      2.99518202     0.11731500     0.07683802     0.58950121    -0.96115791    -0.53524371
Ti      0.07954100     4.58888901     4.58817801    -1.47655527    -0.46559764     0.17109978
Ti      0.00039900     0.06490200     4.62922300    -0.57592269    -1.07689616     0.20932336
O       4.39509001     5.52128302     0.87310098     0.68880111     0.33609962     0.23584841
O       4.44976402     0.92653301     1.08333997     0.36774759    -1.45678476    -1.80492666
O       1.53754498     5.59525899     0.81366601    -0.48005548    -0.05544355     0.33773767
O       1.45312099     0.85745601     1.14305498     0.35350110    -0.48164236    -1.03196483
O       4.40672900     8.43373199     3.84142498    -0.06064643     0.71569923     0.36823353
O       4.53548502     3.68272700     3.73910999     0.07840711     0.99698342     0.49363965
O       1.55594998     8.64684099     3.78892001    -0.48374861    -1.35011685    -0.83333650
O       1.47431301     3.77463201     3.67784698     0.15111227    -0.28462405     0.53041004
O       2.86697000     5.96298600     3.07051601     0.69668025    -0.07980373     1.13802365
O       3.10494497     1.49837703     3.20723499    -1.60582576    -1.11299755     2.03997725
O       5.85876502     6.10542999     3.34946302     0.35736085     0.56103523    -1.11117772
O       5.84842998     1.44842301     3.35064800     0.98151462    -0.02368347     0.06991629
O       2.91560102     7.73998401     1.48023000     0.41304556     1.83900999    -0.72809812
O       2.98741402     3.36361602     1.45587600     0.09400085    -1.20479111    -0.17761187
O       0.03074700     7.76940298     1.28985499    -0.38358405    -0.04472873     1.16100160
O       0.19298200     3.21326502     1.41633698    -0.78322439     0.03751395    -0.07777950
