# total energy = -19940.42324206 eV

CRYSTAL
PRIMVEC
        5.92808926     0.00000000     0.00000000
        0.31529944     6.30139632     0.00000000
        0.00000000     0.00000000    10.61329392
PRIMCOORD
24 1
Ti      2.33549331     3.73420147     3.93745635     0.04137884    -1.03715717     0.67672257
Ti      3.90789515     2.56719462     6.67583770    -0.04137884     1.03715717    -0.67672257
Ti      5.24104732     2.56719677     1.36914826     0.01756810     0.50340856    -0.50557934
Ti      1.00234120     3.73419956     9.24414590    -0.01756810    -0.50340856     0.50557934
Ti      2.17784371     0.58350355     1.36919080     0.04137884    -1.03715717    -0.67672257
Ti      4.06554474     5.71789272     9.24410337    -0.04137884     1.03715717     0.67672257
Ti      0.84469160     0.58350121     6.67579510    -0.01756810    -0.50340856    -0.50557934
Ti      5.39869692     5.71789505     3.93749894     0.01756810     0.50340856     0.50557934
O       1.98729988     2.21882867     5.41588265     1.37943541     1.35430261    -0.12222669
O       4.25608857     4.08256742     5.19741139    -1.37943541    -1.35430261     0.12222669
O       1.19882513     2.21885410     0.10926980    -1.15545830     0.95699118     0.20844661
O       5.04456338     4.08254205    10.50402394     1.15545830    -0.95699118    -0.20844661
O       4.09843898     0.93186931     0.10923539    -1.37943541    -1.35430261    -0.12222669
O       2.14494947     5.36952678    10.50405835     1.37943541     1.35430261     0.12222669
O       4.88691378     0.93184394     5.41591713     1.15545830    -0.95699118     0.20844661
O       1.35647461     5.36955227     5.19737692    -1.15545830     0.95699118    -0.20844661
O       0.40716417     3.83286631     2.86691552     0.40745470     0.05837435     0.52349274
O       5.83622434     2.46852977     7.74637859    -0.40745470    -0.05837435    -0.52349274
O       3.30295099     2.46847106     2.43976526     0.50171523     0.55577141    -0.09778115
O       2.94043752     3.83292502     8.17352861    -0.50171523    -0.55577141     0.09778115
O       0.24951458     0.68216821     2.43973139     0.40745470     0.05837435    -0.52349274
O       5.99387393     5.61922788     8.17356248    -0.40745470    -0.05837435     0.52349274
O       2.78278793     0.68222692     7.74641240    -0.50171523    -0.55577141    -0.09778115
O       3.46060058     5.61916917     2.86688159     0.50171523     0.55577141     0.09778115
