# total energy = -19960.97832931 eV

CRYSTAL
PRIMVEC
        7.60600008     0.00000000     0.00000000
        0.00000000     7.60600008     0.00000000
       -1.89786986    -1.89786986     4.85670466
PRIMCOORD
24 1
Ti      3.78980501     6.51555501     1.29593302    -0.36739715     1.54118563     0.81169628
Ti      3.78288898     2.94073900     1.19475899    -0.40981471    -1.75434198    -0.44961978
Ti     -0.00344299     6.55652698     1.19385102     0.40567266     0.59890631     1.71729880
Ti     -0.00769498     2.88623099     1.07836401     0.62294459    -0.34696099     0.97853163
Ti      5.73437524     2.81282421     3.54454379    -1.14090328     0.81580902    -0.04341644
Ti      5.79936122    -1.07163680     3.71325079    -0.99830496     0.07992406    -0.42219741
Ti      1.78923020     3.00566121     3.58786382     1.98401229    -1.22404019    -0.34880010
Ti      1.86131123    -0.91962476     3.71992779     1.31019223     1.13538904     0.47031973
O       3.63933298     4.74587399     0.67779298     0.13420341     0.92127803     0.91377812
O       3.66367302     1.00104101     0.77018002     0.76127385     0.89105701     0.94789950
O       0.07842402     4.72223099     0.75152203     0.06889556    -0.29017173    -0.17774120
O       0.01883897     0.79150798     0.81778999    -0.25450563     2.33376035     0.31562000
O       5.76206724     4.71673220     4.17776782    -0.08915843    -1.18942156    -1.54378450
O       5.65134124     0.98970624     4.05626882     0.34745824    -0.91810837    -0.91196960
O       1.96040523     4.82824524     4.24943784     0.11674175    -1.10664898    -1.27478993
O       1.92019924     1.09555323     3.92788280    -0.06601310    -0.88420502     0.62635027
O       3.76980523     2.98651124     3.17060481     1.24773574    -0.02501324    -0.02067013
O       3.84391825    -1.04508977     3.28281780     0.33958449     0.12172018     0.11426809
O       0.03334822     2.97533020     3.09852680    -1.48866697    -0.17989861     0.28814235
O       0.06045522    -1.13339877     3.32951282    -1.29229144     0.42210485    -0.35312804
O       5.74046200     6.44068600     1.76203398     0.15734823     0.30012550    -0.76645051
O       5.71334399     3.01865199     1.59005000     0.32448414    -0.56623323     0.07643944
O       1.92290402     6.69758103     1.77332001    -0.25732098    -0.55443906    -1.20596147
O       1.93567201     2.94153901     1.52734398    -1.45617078    -0.12177726     0.25818539
