# total energy = -19933.27477987 eV

CRYSTAL
PRIMVEC
        5.94177064     0.00000000     0.00000000
        2.70863187     5.71439173     0.00000000
        0.00000000     0.00000000    10.92832040
PRIMCOORD
24 1
Ti      3.75873875     3.38634322     4.05432890     0.79131437    -3.02651273     0.77610320
Ti      4.89166356     2.32804844     6.87399156    -0.79131437     3.02651273    -0.77610320
Ti      6.22789329     2.32805037     1.40978768    -2.07544281    -0.92513828     0.68124643
Ti      2.42250913     3.38634150     9.51853296     2.07544281     0.92513828    -0.68124643
Ti      2.40442296     0.52914744     1.40983148     0.79131437    -3.02651273    -0.77610320
Ti      6.24597939     5.18524439     9.51848916    -0.79131437     3.02651273     0.77610320
Ti      1.06819319     0.52914533     6.87394777     2.07544281     0.92513828     0.68124643
Ti      7.58220922     5.18524648     4.05437276    -2.07544281    -0.92513828    -0.68124643
O       2.83436319     2.01213445     5.57663826     1.64165563     2.08549274    -1.04342116
O       5.81603912     3.70225721     5.35168227    -1.64165563    -2.08549274     1.04342116
O       2.04407837     2.01215753     0.11251320     0.37352538    -1.07864785     1.46085585
O       6.60632402     3.70223423    10.81580703    -0.37352538     1.07864785    -1.46085585
O       4.46172330     0.84506132     0.11247770    -1.64165563    -2.08549274    -1.04342116
O       4.18867902     4.86933040    10.81584247     1.64165563     2.08549274     1.04342116
O       5.25200819     0.84503828     5.57667370    -0.37352538     1.07864785     1.46085585
O       3.39839407     4.86935345     5.35164676     0.37352538    -1.07864785    -1.46085585
O       1.86342167     3.47581702     2.95201199     0.64578268     2.47601311     2.32465582
O       6.78698058     2.23857465     7.97630854    -0.64578268    -2.47601311    -2.32465582
O       4.24783846     2.23852147     2.51218301     1.06000658     1.63833685     1.05319238
O       4.40256385     3.47587018     8.41613728    -1.06000658    -1.63833685    -1.05319238
O       0.50910584     0.61862107     2.51214810     0.64578268     2.47601311    -2.32465582
O       8.14129641     5.09577060     8.41617219    -0.64578268    -2.47601311     2.32465582
O       3.04824802     0.61867423     7.97634333    -1.06000658    -1.63833685     1.05319238
O       5.60215429     5.09571742     2.95197708     1.06000658     1.63833685    -1.05319238
