# total energy = -4979.08017560 eV

CRYSTAL
PRIMVEC
        3.67884771     0.00000000     0.00000000
        0.00000000     5.76420284     0.00000000
        0.00000000    -0.00007480     5.76420283
PRIMCOORD
6 1
Ti      1.83942379     2.88206395     2.88210135     0.00000000     0.00000000     0.00000000
Ti      0.00000000     0.00000000     0.00000000     0.00000000     0.00000000     0.00000000
O       1.83942379     1.12334364     1.12335822     0.00000000    -0.96603761    -0.96603761
O       1.83942379     4.64078426     4.64084449     0.00000000     0.96603761     0.96603761
O       0.00000000     1.75868998     4.00546074     0.00000000     0.96614354    -0.96614354
O       0.00000000     4.00543792     1.75874196     0.00000000    -0.96614354     0.96614354
