# total energy = -4990.04688143 eV

CRYSTAL
PRIMVEC
        3.76478398     0.00000000     0.00000000
        0.74549395     3.69023538     0.00000000
       -2.25517326    -1.84514575     4.82914929
PRIMCOORD
6 1
Ti      0.55899069     2.76781766     1.20728745     0.00029722    -0.00029722     0.00000000
Ti      1.69611398    -0.92272802     3.62186199    -0.00029722     0.00029722     0.00000000
O       0.18641293     0.92255345     0.78662902    -0.00016069     0.00014372    -0.22961939
O       2.06869162     0.92253609     4.04252048     0.00016069    -0.00014372     0.22961939
O      -0.18638823    -0.92253323     3.20120356     0.00014372    -0.00016069    -0.22961939
O       2.44149266     2.76762268     1.62794589    -0.00014372     0.00016069     0.22961939
