# total energy = -19517.57231333 eV

CRYSTAL
PRIMVEC
        5.93400000     0.00000000     0.00000000
        0.00000000     9.29699974     0.00000000
        0.00000000     0.00000000     4.64899994
PRIMCOORD
23 1
Ti      4.43450599     7.03486998     2.18467700    -0.41061047     1.36274920     0.11676592
Ti      4.47595798     2.32554399     2.25208101     0.65817257    -0.45981112     0.73987712
Ti      1.34236901     6.99905098     2.31880798     0.06666204     0.58301148    -0.20367695
Ti      1.55629902     2.33070098     2.46180200    -0.90070791    -0.96789189    -0.23846425
Ti      2.95857402     4.56634098     0.18133798     0.65148127    -0.99808205    -0.54777296
Ti      2.98286500     0.10903200     4.63336800    -0.01365205    -0.75029343     1.00341760
Ti      5.92838998     4.60883597     0.12550899    -0.23034727    -1.04253824    -1.75151274
Ti      0.04872802     9.26738000     4.48669700    -0.76852667     0.33190769     0.65272414
O       4.51980799     5.51273300     0.89918597    -1.51693266     1.00951061     0.54944521
O       4.39344300     0.88285398     0.92278903     1.14460284     0.99891611     0.25808692
O       1.49314902     5.45561001     0.89236102     0.31516209     1.86406900     0.55555544
O       1.59984099     0.92844000     0.94233101    -1.45109748     0.06971806    -0.43167835
O       4.37620399     8.45264998     3.71809900     1.13942567    -1.29102054    -1.12495858
O       4.46959298     3.73172902     3.71075302    -0.32625100     0.11585267     0.39699776
O       1.46806200     8.37766201     3.63800300     0.15715180    -0.55223948     0.05328896
O       1.49077100     3.59787099     3.88442502     0.34911249     0.79741689    -0.54724666
O       3.00028599     1.43209800     3.31966700     0.21227318     1.06311736    -1.46042468
O       5.82678102     6.10846397     3.20516099     0.69114287     0.05612206    -0.23446438
O       0.04628100     1.25110800     3.09725799    -0.46089407     1.07382703     0.30420893
O       2.94497702     7.92694799     1.26702999     0.17924889    -2.09160914     1.71956677
O       2.93068802     3.27799498     1.50523802     0.68690003    -0.02191532    -0.22283271
O       5.91789597     7.89596101     1.31761399     0.11321677    -0.30802753    -0.03327497
O       0.03918600     3.31832501     1.47146799    -0.28553294    -0.84278916     0.44637298
