# total energy = -19517.73827713 eV

CRYSTAL
PRIMVEC
        7.60600008     0.00000000     0.00000000
        0.00000000     7.60600008     0.00000000
       -1.89786986    -1.89786986     4.85670466
PRIMCOORD
23 1
Ti      3.77192099     6.73097899     1.24739799     0.12025774     0.86155385     0.31825512
Ti      3.79000303     2.91350299     1.14450800     0.89812266    -1.14169287     2.16090219
Ti      0.03963400     6.58627102     1.10519399    -0.16868886     1.23197848     0.55395004
Ti     -0.06900699     2.79120700     1.11354102     0.07363411    -1.38107012     1.13951874
Ti      5.72881824     2.73763823     3.75836479    -2.34436770     0.27779726    -1.66262453
Ti      5.76617821    -1.03832377     3.53049879    -0.04372677     0.29048154     0.86268642
Ti      2.02283920     2.95169921     3.78992783     1.82302106    -0.54494243    -1.35053209
Ti      1.95316921    -0.92529976     3.67886284    -0.75944193     0.77625310     0.16551688
O       3.84451500     4.80839602     0.84159900    -0.03892600    -0.28454743     1.18491159
O       3.63828902     0.98326203     0.82277199    -0.08991203     0.68675451    -0.46838755
O       7.30866301     4.63927102     0.73909800     0.96869587     1.55774328     1.21726507
O       0.21068197     0.84402200     0.67135998    -0.15155116     0.09063656     0.05735876
O       5.36042325     4.68818023     4.04245280     1.38618302     0.60509367    -1.14434959
O       5.80208024     0.91650822     4.16668780     0.81789084    -0.62430547    -2.62521094
O       1.97274220     4.87999624     4.12322282     0.13805184    -1.19601850    -0.70723875
O       1.72688021     1.02092521     4.15883682    -0.29996429     0.22221487    -0.64427421
O       3.85401320     2.64085721     3.36883080    -0.95735062     0.50443777    -1.18510750
O       3.75067224    -0.61801680     3.21664879     0.43608188    -0.78678614    -0.06427452
O       0.10537025    -0.85769678     3.08738984    -1.02839871    -0.74815247     0.29072451
O       5.69342200     6.82891398     1.60745501     0.44959381    -0.65646099     0.39579140
O       5.73305701     2.55775802     1.41759500    -0.98640024     0.71343228     1.40379534
O       1.93017899     6.54543098     1.39368502    -0.64398959    -0.49482236     0.75595783
O       1.62153499     2.98217702     1.97177502     0.40118506     0.04042187    -0.65463422
