# total energy = -19070.79210559 eV

CRYSTAL
PRIMVEC
        5.17600016     0.00000000     0.00000000
        0.00000000     5.50899976     0.00000000
        0.00000000     0.00000000     9.26300011
PRIMCOORD
22 1
Ti      1.70882902     3.52526099     3.28405301     0.88472310     0.12472580    -2.60043039
Ti      3.79894199     2.37341400     5.82247500    -0.36941752     0.30366308     0.39668126
Ti      4.22712402     2.32381802     1.47854097     0.11924010     0.05422304    -1.14146918
Ti      1.35163400     2.47940502     7.80079399    -1.76495679    -0.27749592    -1.01317340
Ti      1.63559200     0.74376302     1.48363801     0.81896377    -0.34878827    -0.78257210
Ti      3.16945602     0.05815102     7.92794099     1.99561979     0.96202977     0.67099004
Ti      0.64534198     5.18748902     6.49971001     1.08584129     1.99282269    -1.29055414
Ti      4.35966202     5.05654998     3.58022102    -0.52282374    -0.12269617     0.00573793
O       3.31376599     3.31474402     4.11829602     2.72914629     0.10901456     3.34146193
O       1.02379198     2.22015400     0.33506800    -0.39040339    -0.17685777    -0.02714392
O       5.08746298     3.63477999     6.90108402    -1.36961688    -2.37880404     0.02471500
O       3.44625102     0.73343602     0.44889799    -0.30263669     0.36355438    -1.16627314
O       1.54576099     5.04583499     8.23962502    -2.63009733    -1.44753727     1.92274468
O       4.12744100     0.76525301     4.97606699     0.73216201    -1.09686387    -0.73163262
O       0.97425098     4.55815101     4.45615199    -2.19549023     1.21367838     3.17822716
O       5.03514201     3.95003400     2.11220200     1.24073874    -0.21454527    -0.37306669
O       4.78419198     1.05684502     7.35884801     0.62989505     0.87493105    -0.44366407
O       2.60696098     1.92951001     2.46330502    -0.57013745     0.74421586    -0.52156492
O       2.53289400     3.39948101     6.68851902     0.46166077     2.55140997     0.51280980
O       0.00240897     1.29093700     2.49711500     0.94746549    -2.24097795     1.91485884
O       2.15932603     1.18518500     6.58252202     0.38613279    -1.10133502    -0.38004004
O       2.73764199     4.98945301     2.60495598    -1.91600967     0.11163246    -1.49664202
