# total energy = -4983.89409552 eV

CRYSTAL
PRIMVEC
        3.84878609     0.00000000     0.00000000
       -0.00000717     3.14900662     0.00000000
       -1.92441872    -1.57453930     4.51047446
PRIMCOORD
6 1
Ti     -0.00016705     2.36187233     1.12761874    -0.00317711    -0.01025871     8.82128724
Ti      1.92452724    -0.78740520     3.38285587     0.00317711     0.01025871    -8.82128724
O       0.00003970     0.78724503     0.73471949     0.00286524     0.00574873    -1.44172272
O       1.92432039     0.78722201     3.77575517    -0.00286524    -0.00574873     1.44172272
O      -0.00001862    -0.78723786     2.98995662     0.00047823    -0.00008562     2.01463902
O       1.92437862     2.36170490     1.52051799    -0.00047823     0.00008562    -2.01463902
