# total energy = -4987.47845245 eV

CRYSTAL
PRIMVEC
        3.26349394     0.00000000     0.00000000
        0.00000000     5.11340574     0.00000000
        0.00000000    -0.00006636     5.11340574
PRIMCOORD
6 1
Ti      1.63174691     2.55666963     2.55670281     0.00000000     0.00000000     0.00000000
Ti      0.00000000     0.00000000     0.00000000     0.00000000     0.00000000     0.00000000
O       1.63174691     0.99651452     0.99652745     0.00000000    -0.71663717    -0.71663717
O       1.63174691     4.11682475     4.11687817    -0.00000000     0.71663717     0.71663717
O       0.00000000     1.56012821     3.55323130     0.00000000     0.71694544    -0.71694544
O       0.00000000     3.55321105     1.56017432     0.00000000    -0.71694544     0.71694544
