# total energy = -19957.80471221 eV

CRYSTAL
PRIMVEC
        5.93400000     0.00000000     0.00000000
        0.00000000     9.29699974     0.00000000
        0.00000000     0.00000000     4.64899994
PRIMCOORD
24 1
Ti      4.45080401     7.04686098     2.47503402    -0.42209868    -0.97460015    -0.49165810
Ti      4.43572998     2.21319802     2.25372998    -1.30484794    -1.08951282     3.35857983
Ti      1.47030698     6.94948400     2.26811899    -0.68611816     0.77389745     1.12019175
Ti      1.40873800     2.57886002     2.09105602     0.37975208    -2.54491125     1.48606861
Ti      2.84144301     4.68229303     0.11146299     3.15175507     0.83295443    -1.79704725
Ti      3.00675301     9.16391701     4.61476398    -0.80322861     0.53423533    -0.38235532
Ti      5.86899799     4.56323000     0.10206702    -2.80214404     2.45168893    -4.02075124
Ti      0.00803699     0.05515302     0.04705899     0.60101770     0.01600178     0.15540833
O       4.31796200     5.59529502     0.87984502     0.79441409    -0.56466100    -0.04169688
O       4.45676303     0.89594799     0.81553898     1.45255350     0.34970384     0.58895331
O       1.43081400     5.47087699     0.95269998    -0.14926725     1.06337447     0.91472223
O       1.66635498     0.92569701     0.88358800    -1.15600646     0.54512575     0.05972315
O       4.70060198     8.56059700     3.59886299    -0.65951160    -0.99354174     1.23665840
O       4.46658800     3.67406198     3.62065398     0.39736106     0.54122976     1.10792553
O       1.64005598     8.09282299     3.78972002    -0.80895909     1.77060165     0.61186442
O       1.44820700     3.66404498     3.98354601    -0.20104646    -0.91704933    -2.67062616
O       2.95918098     6.11571799     3.38896800    -0.24430888    -0.50514663    -1.36450449
O       3.16079799     1.23593400     3.29781500    -0.21950467     1.56036066    -1.68760615
O       5.84403400     6.04413698     3.04592001     2.32543229    -0.90752442     1.38636094
O       0.14886100     1.41004602     3.17391497     0.69166017     1.20905194    -1.25132038
O       3.18292702     8.01303899     1.53369802    -2.17256061    -0.47824568    -1.09295271
O       3.09617698     3.17403002     1.34180798    -1.64991659    -0.03699690     0.92164415
O       5.85650099     7.91344302     1.43852300     1.93416089     0.33416409    -0.88499358
O       5.75066099     3.39796402     1.37170501     1.55141245    -2.97019989     2.73741161
