# total energy = -19958.76438168 eV

CRYSTAL
PRIMVEC
        5.06053368     0.00000000     0.00000000
        0.80339911     5.32568109     0.00000000
        0.00000000     0.00000000     9.08296416
PRIMCOORD
24 1
Ti      2.31029361     3.15599363     3.36971495     0.99880299    -0.75550969     0.47172690
Ti      3.55363912     2.16968731     5.71324942    -0.99880299     0.75550969    -0.47172690
Ti      4.69168921     2.16968911     1.17173091    -1.50901212    -0.54452206     0.90691455
Ti      1.17224353     3.15599204     7.91123356     1.50901212     0.54452206    -0.90691455
Ti      1.90859417     0.49315318     1.17176734     0.99913749    -0.75660241    -0.47085555
Ti      3.95533857     4.83252791     7.91119714    -0.99913749     0.75660241     0.47085555
Ti      0.77054406     0.49315123     5.71321299     1.50849507     0.54368131     0.90578764
Ti      5.09338868     4.83252987     3.36975138    -1.50849507    -0.54368131    -0.90578764
O       1.88458132     1.87526278     4.63496713    -0.27367629     0.07937024    -0.47056887
O       3.97935140     3.45041816     4.44799719     0.27367629    -0.07937024     0.47056887
O       1.21149928     1.87528431     0.09351420     0.57894734    -0.67011869     0.21572849
O       4.65243350     3.45039668     8.98944991    -0.57894734     0.67011869    -0.21572849
O       3.57765195     0.78757755     0.09348474     0.27418177    -0.07912701    -0.47052902
O       2.28628078     4.53810339     8.98947937    -0.27418177     0.07912701     0.47052902
O       4.25073404     0.78755607     4.63499664    -0.57807239     0.66952502     0.21614115
O       1.61319864     4.53812492     4.44796773     0.57807239    -0.66952502    -0.21614115
O       0.67253376     3.23938113     2.45353526    -0.37929802    -0.19005756    -0.51370737
O       5.19139896     2.08629976     6.62942910     0.37929802     0.19005756     0.51370737
O       3.02885647     2.08625023     2.08797581     0.52349814    -0.50167358    -0.59634677
O       2.83507626     3.23943066     6.99498840    -0.52349814     0.50167358     0.59634677
O       0.27083431     0.57654052     2.08794677    -0.37908462    -0.18999560     0.51558042
O       5.59309842     4.74914036     6.99501740     0.37908462     0.18999560    -0.51558042
O       2.43337680     0.57659006     6.62945805    -0.52324360     0.50151160    -0.59811672
O       3.43055592     4.74909083     2.45350627     0.52324360    -0.50151160     0.59811672
