# total energy = -4879.92091499 eV

CRYSTAL
PRIMVEC
        5.18369121     0.00000000     0.00000000
       -0.00000672     1.96622743     0.00000000
       -2.59187668    -0.98320704     5.72093185
PRIMCOORD
6 1
Ti     -0.00022149     1.47472622     1.43023271    -0.06046594    -0.05112641   108.47262646
Ti      2.59202934    -0.49170608     4.29069869     0.06046594     0.05112641  -108.47262646
O       0.00005503     0.49154121     0.93189297     0.05882532     0.05200649  -101.44841296
O       2.59175267     0.49147888     4.78903848    -0.05882532    -0.05200649   101.44841296
O      -0.00002247    -0.49159537     3.79235890    -0.00066797     0.00005399     0.04912197
O       2.59183008     1.47461540     1.92857255     0.00066797    -0.00005399    -0.04912197
