# total energy = -19924.30530085 eV

CRYSTAL
PRIMVEC
        7.40650189     0.00000000     0.00000000
        0.00002479     3.79540186     0.00000000
        0.00000000     0.00000000    11.19004742
PRIMCOORD
24 1
Ti      2.68451552     2.24915170     4.15142778    -0.02928513     0.29364092     1.66097697
Ti      4.72201133     1.54625033     7.03861975     0.02928513    -0.29364092    -1.66097697
Ti      6.38763968     1.54625168     1.44355128    -0.02962760    -0.29361161    -1.66042084
Ti      1.01888722     2.24915052     9.74649642     0.02962760     0.29361161     1.66042084
Ti      2.68450318     0.35145083     1.44359615    -0.02928513     0.29364092    -1.66097697
Ti      4.72202373     3.44395132     9.74645155     0.02928513    -0.29364092     1.66097697
Ti      1.01887483     0.35144937     7.03857487     0.02962760     0.29361161    -1.66042084
Ti      6.38765202     3.44395278     4.15147266    -0.02962760    -0.29361161     1.66042084
O       2.34421343     1.33642557     5.71019555     2.64732398     0.24630586    -0.38449756
O       5.06231348     2.45897646     5.47985198    -2.64732398    -0.24630586     0.38449756
O       1.35909847     1.33644084     0.11520780    -2.64741603     0.24616728    -0.38572912
O       6.04742849     2.45896119    11.07483939     2.64741603    -0.24616728     0.38572912
O       5.06230108     0.56127553     0.11517151    -2.64732398    -0.24630586    -0.38449756
O       2.34422577     3.23412650    11.07487574     2.64732398     0.24630586     0.38449756
O       6.04741615     0.56126025     5.71023185     2.64741603    -0.24616728    -0.38572912
O       1.35911064     3.23414183     5.47981568    -2.64741603     0.24616728     0.38572912
O       0.26911053     2.30857860     3.02271097    -1.01035958     0.32440006     0.55224488
O       7.13741632     1.48682349     8.16733656     1.01035958    -0.32440006    -0.55224488
O       3.97237074     1.48678806     2.57234836    -1.00855981    -0.32445534    -0.55314940
O       3.43415611     2.30861403     8.61769900     1.00855981     0.32445534     0.55314940
O       0.26909819     0.41087761     2.57231263    -1.01035958     0.32440006    -0.55224488
O       7.13742872     3.38452442     8.61773473     1.01035958    -0.32440006     0.55224488
O       3.43414377     0.41091304     8.16737224     1.00855981     0.32445534    -0.55314940
O       3.97238314     3.38448899     3.02267524    -1.00855981    -0.32445534     0.55314940
