# total energy = -19947.32473349 eV

CRYSTAL
PRIMVEC
        5.77096404     0.00000000     0.00000000
        0.00003163     6.14205091     0.00000000
        0.00000000     0.00000000    10.32875668
PRIMCOORD
24 1
Ti      2.09171564     3.63977369     3.83189513     0.03464486    -0.67876197     0.54709367
Ti      3.67928003     2.50227728     6.49686184    -0.03464486     0.67876197    -0.54709367
Ti      4.97709663     2.50227939     1.33244208     0.03549358     0.67898206    -0.54731993
Ti      0.79389904     3.63977181     8.99631501    -0.03549358    -0.67898206     0.54731993
Ti      2.09169995     0.56874835     1.33248350     0.03464486    -0.67876197    -0.54709367
Ti      3.67929573     5.57330279     8.99627359    -0.03464486     0.67876197     0.54709367
Ti      0.79388334     0.56874606     6.49682042    -0.03549358    -0.67898206    -0.54731993
Ti      4.97711233     5.57330508     3.83193655     0.03549358     0.67898206     0.54731993
O       1.82655769     2.16272060     5.27068558     1.14614062     1.04225979     0.04592995
O       3.94443798     3.97933043     5.05807139    -1.14614062    -1.04225979    -0.04592995
O       1.05898035     2.16274533     0.10634034    -1.14579507     1.04263440     0.04523266
O       4.71201539     3.97930569    10.22241633     1.14579507    -1.04263440    -0.04523266
O       3.94442228     0.90830492     0.10630683    -1.14614062    -1.04225979     0.04592995
O       1.82657339     5.23374605    10.22244985     1.14614062     1.04225979    -0.04592995
O       4.71199969     0.90828018     5.27071909     1.14579507    -1.04263440     0.04523266
O       1.05899592     5.23377084     5.05803788    -1.14579507     1.04263440    -0.04523266
O       0.20969169     3.73594355     2.79005492     0.40192862    -0.23644053     0.27454430
O       5.56130398     2.40610742     7.53870205    -0.40192862     0.23644053    -0.27454430
O       3.09517833     2.40605017     2.37435640     0.40119766     0.23666293    -0.27453376
O       2.67581734     3.73600079     7.95440040    -0.40119766    -0.23666293     0.27453376
O       0.20967599     0.66491804     2.37432342     0.40192862    -0.23644053    -0.27454430
O       5.56131968     5.47713293     7.95443338    -0.40192862     0.23644053     0.27454430
O       2.67580164     0.66497528     7.53873497    -0.40119766    -0.23666293    -0.27453376
O       3.09519403     5.47707569     2.79002194     0.40119766     0.23666293     0.27453376
