# total energy = -19072.19755611 eV

CRYSTAL
PRIMVEC
        5.17600016     0.00000000     0.00000000
        0.00000000     5.50899976     0.00000000
        0.00000000     0.00000000     9.26300011
PRIMCOORD
22 1
Ti      1.50359699     3.15305899     3.69004202     1.54302371    -0.32605328    -1.31866274
Ti      4.53474603     3.03462298     5.88316702    -1.67425723     0.64742638    -0.59963522
Ti      4.42644599     2.21020599     1.38390699    -1.87342267    -1.62122590     0.33256049
Ti      1.27107100     2.89143698     8.20445600     1.04564182    -2.38099642    -0.49749553
Ti      1.73629300     0.56397499     1.52172300    -0.85934913     0.54366408     0.01643347
Ti      3.11089298     5.29079500     8.07710002    -0.51020707     0.54963675    -0.42022846
Ti      1.38457301     0.19697501     5.65685099    -0.06652938     1.16911755     1.21832925
Ti      4.01461199     4.88817600     3.52670702    -1.49486462     0.45228010    -1.11457286
O       3.15965698     3.30394801     4.55013201     0.43872395    -1.10449002     0.78329278
O       0.55544201     1.55346200     0.20657799     0.08494722     1.24180549    -1.36730083
O       4.86577301     3.60897101     7.69415699    -1.61935491     0.76402724    -0.26678393
O       3.02051601     1.14839798     0.33893602     1.57290740    -0.85267274    -2.69529513
O       2.01137299     4.17849998     9.16861198     0.75981603     1.10036134     1.26170198
O       2.67738097     0.25679702     4.55756097     1.71686557     1.38932259    -0.46479340
O       0.27719902     4.45175902     4.69500598     0.74621360     0.53403812     2.07338387
O       4.96535697     3.44310998     2.67695800    -0.06911436    -0.97951533    -2.06202370
O       0.62928801     1.97622699     4.96876398    -0.09995450    -1.01251726    -0.06630106
O       2.44202400     2.13230698     2.26814598    -0.70489828    -0.47550000     1.56438958
O       2.28349001     4.29144700     6.71408400     0.01590845    -1.23839929     0.24474597
O       4.85014202     0.57176602     2.13787498     0.64713225    -0.65142497     1.93294579
O       2.08965301     1.12885102     7.14948702     0.33296801     1.72327302     1.25710485
O       2.30185902     4.58798099     2.45716799     0.06780387     0.52784253     0.18820431
