# total energy = -19516.79068339 eV

CRYSTAL
PRIMVEC
        5.17600016     0.00000000     0.00000000
        0.00000000     5.50899976     0.00000000
        0.00000000     0.00000000     9.26300011
PRIMCOORD
23 1
Ti      1.79074201     3.24462300     3.47250398    -0.37522616    -1.14114522     2.64735664
Ti      3.36674499     2.27569501     5.79833600    -0.10374534     0.68369875    -2.45514912
Ti      4.39126602     2.06260502     1.58835197    -0.45349983    -1.36671204    -1.71362829
Ti      0.97881000     3.26278500     7.79785398    -0.21746964     0.03212492     1.59120543
Ti      2.00534598     0.25436000     1.31863298    -0.84593825     0.85091925    -2.27068860
Ti      3.36605399     5.36529501     7.79106803    -0.47386734    -0.83239367     2.19006983
Ti      0.67117101     0.51882802     6.01966798    -0.24249626    -0.31647515    -3.89892230
Ti      4.41615301     4.93150498     3.28928398     0.62127414     0.16282957     4.00935122
O       1.56373999     2.07503698     4.87948701     0.02798647    -0.61852949    -0.25629486
O       3.35702798     3.61544502     4.47531900     1.61880186     0.45496973     0.22327880
O       0.17926102     2.53413201     0.10510302     1.20794045     0.97238618    -0.66938156
O       3.48665598     0.93744501     0.26130497    -0.51143709    -0.86411904    -1.60949806
O       1.90092100     4.80608701     8.85532597    -0.95491372    -0.18797702     1.33946014
O       4.31628202     0.80329101     4.69075298    -1.01233291     0.26905293     0.11310467
O       0.90886801     4.75657501     4.43521900    -0.01070376    -0.04990385     0.41546549
O       0.11353000     3.27777299     2.63787302    -0.87799529     0.62033080    -0.34184732
O       4.97871701     2.03628602     6.78717301     0.15822575    -0.03995110     0.88038359
O       2.50191601     1.77464602     2.27170798     0.63155573     1.36800171     0.59171004
O       2.74139502     3.56292799     7.10383998    -0.02559380    -0.12110003    -0.21750075
O       0.13272702     0.45788898     2.02937200     0.95998728     0.54972546    -0.90213667
O       5.07603699     4.69010400     7.21489402    -0.10150462     0.69533711    -0.01968746
O       2.36906500     1.02441402     6.81051698    -0.52194416    -0.77877612     0.88172853
O       2.70662400     4.50258702     2.31628201     1.50289572    -0.34229392    -0.52837912
