# total energy = -19937.29334034 eV

CRYSTAL
PRIMVEC
        4.88660401     0.00000000     0.00000000
        1.76622257     4.89173142     0.00000000
        0.00000000     0.00000000     8.88718703
PRIMCOORD
24 1
Ti      2.81782085     2.89883544     3.29708302     3.67316213    -2.94429782     1.14472960
Ti      3.83500590     1.99289586     5.59010411    -3.67316213     2.94429782    -1.14472960
Ti      4.93394180     1.99289752     1.14647507    -7.22133749     1.16822049     2.37853742
Ti      1.71888498     2.89883392     7.74071216     7.22133749    -1.16822049    -2.37853742
Ti      1.93470969     0.45296985     1.14651070     3.67339507    -2.94417595    -1.13688568
Ti      4.71811708     4.43876154     7.74067653    -3.67339507     2.94417595     1.13688568
Ti      0.83577372     0.45296805     5.59006848     7.22119016    -1.16779112     2.36513039
Ti      5.81705305     4.43876339     3.29711865    -7.22119016     1.16779112    -2.36513039
O       2.16855806     1.72246174     4.53506352    -1.45899463    -0.20695563    -1.11626876
O       4.48426870     3.16926956     4.35212361     1.45899463     0.20695563     1.11626876
O       1.51861371     1.72248147     0.09149860     1.70946285    -0.69229447    -1.05119463
O       5.13421311     3.16924987     8.79568829    -1.70946285     0.69229447     1.05119463
O       3.60115752     0.72340388     0.09146976     1.45894372     0.20694329    -1.11630244
O       3.05166923     4.16832742     8.79571713    -1.45894372    -0.20694329     1.11630244
O       4.25110192     0.72338414     4.53509236    -1.71008223     0.69266290    -1.05112033
O       2.40172479     4.16834717     4.35209477     1.71008223    -0.69266290     1.05112033
O       1.25185828     2.97542827     2.40065094    -0.28125334    -2.52663096    -2.60212166
O       5.40096848     1.91630302     6.48653619     0.28125334     2.52663096     2.60212166
O       3.31274284     1.91625746     2.04297088     2.02515432    -2.74341360    -3.35657411
O       3.34008392     2.97547384     6.84421611    -2.02515432     2.74341360     3.35657411
O       0.36874710     0.52956259     2.04294248    -0.28117980    -2.52660267     2.60255617
O       6.28407965     4.36216870     6.84424450     0.28117980     2.52660267    -2.60255617
O       2.45697274     0.52960816     6.48656449    -2.02569760     2.74358586    -3.35705413
O       4.19585401     4.36212314     2.40062259     2.02569760    -2.74358586     3.35705413
