# total energy = -19069.73859762 eV

CRYSTAL
PRIMVEC
        5.17600016     0.00000000     0.00000000
        0.00000000     5.50899976     0.00000000
        0.00000000     0.00000000     9.26300011
PRIMCOORD
22 1
Ti      1.70459301     3.27385301     3.23155402     0.79258732     0.97968528    -0.72670407
Ti      3.65794298     2.25243497     6.07755801     0.31657362    -0.15686280    -1.33578552
Ti      4.35399098     2.10649598     1.16477702     0.70349368    -0.39693425     0.72393524
Ti      0.82313902     3.30895101     8.07066899    -0.15707338     0.75161627     2.35018431
Ti      1.75824798     0.42408101     1.25267601    -1.54979420     2.46093899    -0.08675085
Ti      3.14811398     5.12647102     7.98008802     1.30221873     1.91233068     0.51173971
Ti      0.66734998     0.47588402     6.00222598     0.40091149     0.01995151    -2.28212255
Ti      4.28138501     4.87877903     3.55697099     1.53331445     0.48202417    -0.44798841
O       3.28266799     3.34110302     4.49698600    -0.52893757     0.50023659     0.91433810
O       1.11896599     2.19637499     0.53629500    -2.86103261     0.57259363    -2.01624493
O       4.38433501     4.05697099     8.91092001     3.80969907    -1.41787213     1.65019761
O       3.34285899     1.06518602     9.24379298     1.17885946     0.34436983    -0.01891253
O       1.45725302     4.96998198     8.99997901     0.00513629    -0.00049494    -1.93888144
O       4.78943999     1.11164498     4.61539200    -2.23583651    -0.63585282     0.81363258
O       0.91794398     4.75918798     4.32476701     0.00752099    -1.83596811     0.65354613
O       5.08492198     3.20368802     2.59577099     0.41484971     0.81604505     0.58662697
O       0.44389901     2.54484001     6.28664002    -0.16522455    -0.56294299     2.23018317
O       2.77425899     1.72213201     2.36741302     0.06457122     1.29015253     0.76584707
O       2.81338000     3.42289398     7.81647700    -3.95980218    -4.76679798    -4.60807832
O       0.05968500     0.37741101     2.18758801    -0.22876425     1.06313433    -1.69822224
O       2.56445000     0.34878099     6.24626998     0.02559226     1.82860498     0.65580021
O       2.66860499     4.65711001     2.03552898     1.13113694    -3.24795756     3.30366053
