# total energy = -4916.01027465 eV

CRYSTAL
PRIMVEC
        5.62485642     0.00000000     0.00000000
       -0.00000730     2.13356593     0.00000000
       -2.81246193    -1.06688424     6.20781967
PRIMCOORD
6 1
Ti     -0.00024034     1.60023483     1.55195465    -0.04291816    -0.02883596    77.31021879
Ti      2.81262759    -0.53355341     4.65586454     0.04291816     0.02883596   -77.31021879
O       0.00005972     0.53337450     1.01120301     0.04095949     0.02970422   -72.03107278
O       2.81232737     0.53330687     5.19661622    -0.04095949    -0.02970422    72.03107278
O      -0.00002438    -0.53343327     4.11511285    -0.00124236     0.00001208    -0.73565459
O       2.81241136     1.60011459     2.09270639     0.00124236    -0.00001208     0.73565459
