# total energy = -19959.38979413 eV

CRYSTAL
PRIMVEC
        7.60600008     0.00000000     0.00000000
        0.00000000     7.60600008     0.00000000
       -1.89786986    -1.89786986     4.85670466
PRIMCOORD
24 1
Ti      3.86440498     6.66059201     1.10064698     1.12716099     0.40613521     0.94464551
Ti      3.65598000     2.78717298     1.17363000     1.44007207     0.04121763     0.63210929
Ti      0.11846897     6.73448399     1.25532703    -1.11972356    -0.27625922    -1.03050136
Ti     -0.07002502     2.73825102     1.26018900    -1.61643207     0.97483721     1.17573429
Ti      5.63202823     2.83846523     3.77904482     1.96391217    -0.16846414    -0.52330762
Ti      5.72278224    -0.90535777     3.61230181    -0.12953274    -0.52396994     0.01666615
Ti      1.98316324     2.74238125     3.67360081    -1.46431681     0.18028119    -0.83410294
Ti      2.02064724    -0.93919876     3.56709483    -0.15029389     0.53128653     0.29136395
O       3.90025499     4.64098302     0.69806502    -0.45156327     1.64864749     0.80848986
O       3.82088401     0.99547898     0.64581998     0.46850839    -0.04294875     0.64411275
O      -0.13038398     4.64009500     0.82988402     0.28715273     1.75823104     0.86978138
O      -0.11369500     0.92031502     0.70501401    -0.16547986    -0.75059631     1.15022354
O       5.83930924     4.77555221     4.16446880    -0.05782593    -0.78416130    -0.93523527
O       5.77338523     0.83766822     4.24908080    -0.62899671     1.54279102    -2.20268084
O       1.64484921     4.81614021     4.13527181     0.60264032    -0.70777483    -2.18584962
O       1.87736123     0.93406722     4.02466583    -0.01767043    -0.28074991    -0.17207063
O       3.83580623     2.66236425     3.25097080    -3.06057703     0.46240588     0.38343981
O       3.87519723    -0.81390276     3.10790879    -1.21502359    -0.89918401     0.83046303
O      -0.06835578     2.64546921     3.14147784     0.85602469     0.22751392     1.98219426
O      -0.15656275    -0.60436577     3.10261083     2.93157008    -1.10951087     0.37488318
O       5.70930901     6.69964302     1.51125101    -0.90510090    -0.33902167    -0.38294487
O       5.55976098     2.82794100     1.87169300     0.32341430    -0.02184539    -2.42505589
O       2.01794801    -0.49476099     1.68283599    -1.46457495    -1.76898417    -0.35487767
O       1.78575001     2.89190700     1.56255898     2.44665573    -0.09987685     0.94251946
