# total energy = -4989.79400457 eV

CRYSTAL
PRIMVEC
        3.07448703     0.00000000     0.00000000
        0.48052439     4.79323404     0.00000000
       -0.00000320    -0.00006251     4.82330808
PRIMCOORD
6 1
Ti      1.77750417     2.39658576     2.41165404     0.00000000     0.00000000     0.00000000
Ti      0.00000000     0.00000000     0.00000000     0.00000000     0.00000000     0.00000000
O       1.63089002     0.93411858     0.93999169    -0.08479784    -0.24339229    -0.27590287
O       1.92411837     3.85905295     3.88331633     0.08479784     0.24339229     0.27590287
O       0.14661284     1.46244185     3.35164671     0.08492203     0.24324265    -0.27580311
O       0.33390857     3.33072956     1.47166131    -0.08492203    -0.24324265     0.27580311
