# total energy = -19957.20263449 eV

CRYSTAL
PRIMVEC
        7.60600008     0.00000000     0.00000000
        0.00000000     7.60600008     0.00000000
       -1.89786986    -1.89786986     4.85670466
PRIMCOORD
24 1
Ti      3.74319100     6.69172901     1.31343101    -2.29356834     0.77289164     0.17016313
Ti      3.79971502     2.93177997     1.41215400    -1.49684642    -0.50028467    -3.11173995
Ti     -0.00110699     6.47898701     1.06554602     1.53117015     0.57846654     3.90097815
Ti      0.10903200     2.75881998     1.05579498     0.56057886    -0.97542779     1.58105317
Ti      5.72514724     2.75050221     3.53892779     0.72939164    -0.94649310    -0.09600323
Ti      5.72987522    -1.08047379     3.62269681     1.67160874     1.35957929    -0.03675470
Ti      1.77605723     3.13893922     3.67488480     0.24222295    -3.06515437    -0.45429353
Ti      1.79206823    -0.83326075     3.76075079    -0.63099883     3.33444616    -0.38933767
O       3.28325998     4.91289498     0.81051402     2.36309922     0.37705576    -0.45298844
O       3.52246598     1.12787400     0.95899898     1.13384200    -1.73799336    -0.86796593
O       0.18097798     4.53810598     0.72471301    -0.83066820     2.97291678    -0.31915372
O       0.41340502     0.94902299     0.85365699    -1.77056488    -1.65804462    -2.92525828
O      -1.48705279     4.57462821     4.17983780    -1.05548503     1.13517898    -3.24698131
O       5.77068521     0.91323325     3.92591882    -0.19818945    -1.72015993    -0.64952415
O       1.87591822     4.94459523     3.98962080     0.27643740    -2.09543803     1.85826550
O       1.90484521     1.06343323     3.99619181     0.06947843    -0.24918910     1.43494529
O       3.72434224     2.83410724     3.28756981     2.40187944     0.94588426     1.13353193
O       3.59973121    -0.93703278     3.29140079     4.46682263    -0.54925597    -0.45252204
O       0.18548922     2.61021822     2.92184679    -2.76112414     0.85223205     2.61567703
O       0.06537323     6.39568821     3.02111779    -3.38130556     0.41078685     1.70839815
O       5.72239202     6.76006500     1.60838498    -0.91639396    -0.73568828     0.22233340
O       5.74808400     2.71583602     1.64525202    -0.17422393     0.69912023    -0.15655890
O       1.81954999     6.72545501     1.73887200     0.85151574     0.01603418    -1.13666199
O       1.99370402     2.91923398     1.66281298    -0.78867873     0.77853701    -0.32960192
