# total energy = -19904.67266877 eV

CRYSTAL
PRIMVEC
        7.95513143     0.00000000     0.00000000
        0.00002505     3.21149388     0.00000000
        0.00000000     0.00000000    12.31256003
PRIMCOORD
24 1
Ti      2.88336748     1.90312826     4.56787197    -0.21727964     0.17816055     1.74581466
Ti      5.07178923     1.30836551     7.74468817     0.21727964    -0.17816055    -1.74581466
Ti      6.86079742     1.30836661     1.58835891    -0.21562025    -0.17829604    -1.74532847
Ti      1.09435928     1.90312733    10.72420135     0.21562025     0.17829604     1.74532847
Ti      2.88335507     0.29738137     1.58840827    -0.21756966     0.17834129    -1.74504564
Ti      5.07180164     2.91411251    10.72415199     0.21756966    -0.17834129     1.74504564
Ti      1.09434687     0.29738022     7.74463881     0.21611159     0.17831790    -1.74503613
Ti      6.86080983     2.91411366     4.56792134    -0.21611159    -0.17831790     1.74503613
O       2.51785825     1.13082157     6.28300513     3.79476224     0.08214061    -0.47719050
O       5.43729851     2.08067220     6.02955502    -3.79476224    -0.08214061     0.47719050
O       1.45977179     1.13083450     0.12676471    -3.79457095     0.08221902    -0.47790603
O       6.49538502     2.08065927    12.18579510     3.79457095    -0.08221902     0.47790603
O       5.43728610     0.47492526     0.12672477    -3.79547007    -0.08171663    -0.47751368
O       2.51787061     2.73656851    12.18583504     3.79547007     0.08171663     0.47751368
O       6.49537261     0.47491232     6.28304512     3.79547212    -0.08160350    -0.47772554
O       1.45978403     2.73658150     6.02951503    -3.79547212     0.08160350     0.47772554
O       0.28904358     1.95341262     3.32592962    -0.64986251     0.14458141     0.94456040
O       7.66611312     1.25808115     8.98663053     0.64986251    -0.14458141    -0.94456040
O       4.26661977     1.25805130     2.83038955    -0.64965630    -0.14420217    -0.94429301
O       3.68853699     1.95344253     9.48217037     0.64965630     0.14420217     0.94429301
O       0.28903117     0.34766568     2.83035023    -0.65013890     0.14512649    -0.94492884
O       7.66612553     2.86382809     9.48220970     0.65013890    -0.14512649     0.94492884
O       3.68852458     0.34769553     8.98666973     0.64992704     0.14519642    -0.94444265
O       4.26663218     2.86379824     3.32589036    -0.64992704    -0.14519642     0.94444265
