# total energy = -18966.23182804 eV

CRYSTAL
PRIMVEC
        7.60600008     0.00000000     0.00000000
        0.00000000     7.60600008     0.00000000
       -1.89786986    -1.89786986     4.85670466
PRIMCOORD
22 1
Ti      6.20326698     5.08916000     0.87240098   -11.92229437    19.83690206     6.39179954
Ti      6.17094600     1.93914299     2.42769001    -7.44109181     0.79879500    -9.86802589
Ti     -1.33775977     4.23984925     3.93905379     0.55029856    19.38742678    -8.40480925
Ti      0.29772602     3.34288698     1.24948501     4.42968097   -11.66100797    14.49012444
Ti     -1.43058677     2.76733724     4.79393879    -2.47309851    85.27705434    64.51053359
Ti      5.05357225     2.17566421     4.27814279   -67.47986085   -36.59309199   -35.44061694
Ti     -0.53129877     1.96211521     4.28605082    79.42043500   -59.16507444   -31.95776974
Ti     -0.95016077     0.05550524     3.67286879     6.10839316   -14.60981191    -3.39434388
O       3.86001402     6.30752199     0.51737501     0.73500410    -0.73555921     0.39657096
O       5.61309401     6.59396299     1.71779201    -2.47053538     0.49665195     0.70687803
O       0.04312101     5.39593998     1.79164499     0.95765118     0.64986585    -0.94474989
O      -0.33749978     5.68496924     3.84351179    -1.60922913     2.88485518     1.26298033
O       5.80939501     3.85856799     2.12257599   -12.71359768     9.98891406    25.01178311
O      -0.48075499     0.72712500     1.96254601     2.85416288    -2.42677673    -2.17579172
O       0.42207823     3.71006821     4.51651079     4.81191905     0.90136431     4.61072476
O       1.75536000     3.86850001     1.57924198     7.66752201     0.92493619     0.44207101
O       3.87748523     1.92462523     2.90894582     1.48691219    -0.70056828    -1.37257802
O       0.23413024     3.12530925     3.03892979     0.47754505    -0.32606588    -2.16590556
O       4.34769123     4.01961023     4.12815279     0.22714085     2.52963915    -1.46575046
O       6.10068099     3.41557101     1.15726598    -0.59503577   -16.54846581   -21.53446635
O       0.76896821     0.39831124     4.13527483    -1.50776719     0.09229955     0.53006525
O       5.40933521     0.23745623     4.83533982    -1.51415407    -1.00228220     0.37127669
