# total energy = -19959.98337332 eV

CRYSTAL
PRIMVEC
        5.24219387     0.00000000     0.00000000
        0.83223908     5.51685939     0.00000000
        0.00000000     0.00000000     9.40901929
PRIMCOORD
24 1
Ti      2.39322723     3.26928571     3.49067908     0.67067739    -1.05160961     0.64610227
Ti      3.68120565     2.24757352     5.91834042    -0.67067739     1.05160961    -0.64610227
Ti      4.86010882     2.24757538     1.21379305    -1.04457404    -0.42434325     0.49096210
Ti      1.21432407     3.26928406     8.19522656     1.04457404     0.42434325    -0.49096210
Ti      1.97710781     0.51085611     1.21383078     0.67018760    -1.05121417    -0.64393971
Ti      4.09732508     5.00600328     8.19518883    -0.67018760     1.05121417     0.64393971
Ti      0.79820462     0.51085409     5.91830269     1.04484632     0.42360020     0.49152363
Ti      5.27622827     5.00600530     3.49071681    -1.04484632    -0.42360020    -0.49152363
O       1.95223296     1.94257991     4.80135057     0.40289330     0.67295488    -0.44233712
O       4.12219992     3.57427932     4.60766888    -0.40289330    -0.67295488     0.44233712
O       1.25498900     1.94260221     0.09687112     0.05596959    -0.27367758     0.37945229
O       4.81944393     3.57425707     9.31214811    -0.05596959     0.27367758    -0.37945229
O       3.70608048     0.81584957     0.09684060    -0.40240890    -0.67272631    -0.44251864
O       2.36835240     4.70100966     9.31217863     0.40240890     0.67272631     0.44251864
O       4.40332450     0.81582732     4.80138114    -0.05606241     0.27320449     0.37956027
O       1.67110833     4.70103197     4.60763836     0.05606241    -0.27320449    -0.37956027
O       0.69667600     3.35566660     2.54161089    -0.12066063     0.14713143     0.02216420
O       5.37775687     2.16119257     6.86740861     0.12066063    -0.14713143    -0.02216420
O       3.13758465     2.16114126     2.16292879     0.59608992     0.05328690    -0.30725466
O       2.93684823     3.35571791     7.24609055    -0.59608992    -0.05328690     0.30725466
O       0.28055656     0.59723685     2.16289870    -0.12031276     0.14717643    -0.02311191
O       5.79387631     4.91962233     7.24612059     0.12031276    -0.14717643     0.02311191
O       2.52072879     0.59728816     6.86743859    -0.59621719    -0.05314652    -0.30702171
O       3.55370408     4.91957102     2.54158085     0.59621719     0.05314652     0.30702171
