# total energy = -19073.59470932 eV

CRYSTAL
PRIMVEC
        7.60600008     0.00000000     0.00000000
        0.00000000     7.60600008     0.00000000
       -1.89786986    -1.89786986     4.85670466
PRIMCOORD
22 1
Ti      3.76094601     7.07230900     1.12193700    -3.18190024    -0.50038186    -0.45537751
Ti      3.97369098     2.79001900     1.34992698     0.80806306     0.74158665    -1.45741725
Ti     -0.16839198     6.64215299     1.35670299     1.74871795     0.28514239     0.53212831
Ti      0.03387301     2.82465201     1.23001600    -0.68626060     0.36460622     2.68819477
Ti      5.65259820     2.77758624     3.73848783     5.38545885     1.03690855     0.74002367
Ti      5.67206721    -0.92647480     3.83963482     1.81603126    -0.95902183     0.50654068
Ti      2.08325420     2.77611021     3.87740580    -1.31493464    -0.36736656    -1.47234946
Ti      1.73716821    -0.76453576     3.65076284     0.31624529     0.27445482    -1.02474517
O       3.54221202     4.43636298     0.75309098    -0.73776059     2.18336413     1.08150358
O       3.22716100     1.28926999     0.73457401    -0.05229960    -1.69917715     0.84761744
O       0.06344698     4.70577902     0.91732501    -0.24090860     1.40816776     0.29849645
O       0.06667602     1.02420299     0.87585598    -0.45801186    -2.28386628     0.39625625
O       5.87377921     4.67439521     4.16994181    -1.01016984     0.94307842    -0.09528666
O       5.57292824     0.93029022     4.21861183    -0.01207262     0.46244778    -1.80053110
O       1.96973722     4.93451324     4.09025783     0.71172276    -0.86451268     0.14984061
O       2.62796725     0.85642723     3.99645581    -0.85433573     0.27633147     0.00296088
O       4.03166520     2.76122022     3.23868780    -5.02185073     1.07186965     0.31943475
O       0.14579124     2.68596524     3.14444779     1.41714039     0.12339577     0.77447312
O       5.31935100    -0.66557602     1.98650901     1.35493330    -0.18956314    -1.35849942
O       5.76353201     2.69961499     1.59707001     0.95660577     0.20818950     0.99997798
O       1.88095900    -0.57383600     1.76725299     0.45056388    -1.50847167    -0.43635134
O      -0.06303279    -0.58033879     3.39842684    -1.39497799    -1.00718196    -1.23689031
