# total energy = -39034.86206311 eV

CRYSTAL
PRIMVEC
        7.60600008     0.00000000     0.00000000
        0.00000000     7.60600008     0.00000000
       -3.79573973    -3.79573973     9.71340985
PRIMCOORD
46 1
Ti      1.93717546     5.07363045     6.14706465     0.46018393    -0.44029361    -0.75752775
Ti      3.96002900     6.60368403     1.31424001    -1.68083618    -0.18916127    -0.88724561
Ti      1.79037544     1.20388444     5.96622261     0.42571545    -1.76119655     1.20982790
Ti      3.80911500     2.54372202     1.20696901    -0.56552669    -0.21139772     2.67871382
Ti     -1.80990854     4.82077945     6.06334563    -0.73357868    -0.38336499    -0.64050266
Ti      0.10699900     6.55429798     1.27424400     0.67272399     0.57368558    -0.16241588
Ti     -2.14145656     0.87402243     6.01635162     0.35821317     0.87173414    -0.96001248
Ti     -0.08360799     2.69661498     1.20674898     0.82968527    -0.78145161     0.44960718
Ti      3.65938546     0.70818844     8.57279761    -0.93303954     1.77310847     0.58337375
Ti      5.70849302     2.86989799     3.68859298    -0.89889477    -0.22025878     0.00673115
Ti      3.81947047    -3.00752355     8.44085065     0.79356229    -0.45674919     1.32731296
Ti      5.82110998    -0.91948998     3.56303398     0.42716041     0.84541914     1.28994762
Ti     -0.19968355     0.85529845     8.30031064     1.17461354     0.39996738     0.50322987
Ti      1.78633200     2.99703102     3.49847399     1.13635526     0.46760182    -0.09172568
Ti      0.04488847    -2.88600657     8.48413962    -1.15674386    -0.68055043     1.34774809
Ti      2.08672502    -0.67157700     3.56838301    -1.26039715    -0.09367072     2.21033039
O       1.87741743    -0.82210353     5.66760064     0.38676965     1.30220973    -0.63049798
O       3.63560498     0.70227801     0.86681202     0.22651273     2.36151182    -0.68981926
O      -1.92876355     2.91537347     5.64715863     0.65066083     0.74560759    -0.02329780
O       0.02458198     4.62174398     0.85427301    -0.86663615     0.98340439    -0.63546407
O       5.28339647    -0.91457455     5.50441762     1.00966050    -2.03940955     0.68088776
O      -0.00470200     0.81946098     0.89513898     0.54711064     0.20941643    -0.17963199
O       4.01852944     2.82183546     9.11182163    -0.70148308    -0.52821226    -1.32698874
O       6.01685900     4.78741800     3.95748800    -0.43843599     0.73676197     0.64849699
O       3.64183043    -1.07929256     8.97355063    -0.04525143    -0.26270513    -1.17989999
O       5.62559698     0.98412802     4.10447999     0.54866848     0.32413293    -0.72882343
O      -0.03499656     2.60354445     9.08067664    -0.16063179    -0.73859979    -1.00489727
O       2.08875299     4.66320698     4.34714100    -0.52986856     0.04438703    -0.72647344
O       0.20742743    -1.06129757     9.15104864    -0.35460128     1.87821701    -2.49993210
O       2.15582599     1.27516699     4.06187699    -0.66292192    -1.05077837    -0.29503574
O       1.78947145     0.96424943     8.01563164     0.41370479     0.19021234    -0.24485910
O       3.84576799     3.07702198     3.17623399    -0.01261461    -0.13775410    -0.94468921
O       1.86329543    -2.96066956     8.11019260     1.55824490    -0.53591863    -0.23482794
O       3.84260801    -0.53669300     3.27497201     1.90411857    -1.46028712    -0.25302364
O      -2.21961455     0.90390544     8.00082262     2.37861326    -0.75418223     0.33697250
O      -0.05437799     2.58201498     3.26061400     0.68517688     0.93028255    -0.56041739
O      -1.79101257    -2.72971354     8.26065463    -1.09722459    -0.40600768    -1.38617582
O       0.14002501    -0.67798999     3.35349201    -0.91607180    -0.55029393    -0.84952391
O       3.91533442     4.54934343     6.54356462    -1.10746067     0.68122843     0.43057098
O       5.73812700     6.77345599     1.60054200     1.85835446    -1.27212241     0.71248740
O       3.70289743     1.07777044     6.21521760    -2.38577996     0.65279819     1.14550684
O       5.72298502     2.68453598     1.53659098    -1.83185100     0.35785553     0.68264177
O       0.02249543    -2.50687557     6.52365163    -0.46441931    -0.69571815     0.09847303
O       2.11452202     6.43718899     1.75599300    -2.23208758    -0.85588354    -0.39704532
O      -0.17920154     0.79911543     6.41030964     0.66844208     0.62338399     0.54346456
O       1.80226098     2.93303698     1.41679398     1.92210601    -0.44695843     1.40443040
