# total energy = -4985.34845076 eV

CRYSTAL
PRIMVEC
        4.17110066     0.00000000     0.00000000
        1.78654331     3.76913037     0.00000000
       -2.97886148    -1.88459017     5.47035626
PRIMCOORD
6 1
Ti      1.33980212     2.82699285     1.36758901     0.00012521    -0.00012521     0.00000000
Ti      1.63898066    -0.94245242     4.10276691    -0.00012521     0.00012521     0.00000000
O       0.44667915     0.94227764     0.89107627    -0.00052348    -0.00074511    -1.96695713
O       2.53210348     0.94226264     4.57927971     0.00052348     0.00074511     1.96695713
O      -0.44664157    -0.94225391     3.62625423    -0.00074511    -0.00052348    -1.96695713
O       3.42542413     2.82679416     1.84410175     0.00074511     0.00052348     1.96695713
