# total energy = -4988.66983132 eV

CRYSTAL
PRIMVEC
        4.16254582     0.00000000     0.00000000
       -0.00000775     3.40571912     0.00000000
       -2.08130069    -1.70289848     4.87817619
PRIMCOORD
6 1
Ti     -0.00018067     2.55441627     1.21954418    -0.00219341    -0.00428577     5.36845305
Ti      2.08141805    -0.85159584     3.65863217     0.00219341     0.00428577    -5.36845305
O       0.00004294     0.85142261     0.79461510     0.00109298     0.00350879    -1.03376023
O       2.08119434     0.85139771     4.08356130    -0.00109298    -0.00350879     1.03376023
O      -0.00002014    -0.85141486     3.23370309    -0.00151824    -0.00033630    -0.42154717
O       2.08125731     2.55423519     1.64447326     0.00151824     0.00033630     0.42154717
