# total energy = -19861.79154302 eV

CRYSTAL
PRIMVEC
        7.14253846     0.00000000     0.00000000
        0.00002221     2.53394028     0.00000000
        0.00000000     0.00000000    11.36317625
PRIMCOORD
24 1
Ti      2.58883965     1.50161058     4.21565744    -1.23432332     0.78520234    -1.10981169
Ti      4.55372072     1.03232946     7.14751915     1.23432332    -0.78520234     1.10981169
Ti      6.15998704     1.03233028     1.46588546    -1.23265545    -0.78563352     1.11204778
Ti      0.98257338     1.50160986     9.89729124     1.23265545     0.78563352    -1.11204778
Ti      2.58882884     0.23464049     1.46593103    -1.23432332     0.78520234     1.10981169
Ti      4.55373158     2.29929965     9.89724567     1.23432332    -0.78520234    -1.10981169
Ti      0.98256252     0.23463962     7.14747358     1.23265545     0.78563352     1.11204778
Ti      6.15999790     2.29930052     4.21570301    -1.23265545    -0.78563352    -1.11204778
O       2.26066623     0.89224337     5.79854200    10.55235533    -1.48479951     5.49168864
O       4.88189419     1.64169672     5.56463460   -10.55235533     1.48479951    -5.49168864
O       1.31066018     0.89225366     0.11699029   -10.55197790    -1.48540681     5.49211185
O       5.83190029     1.64168643    11.24618597    10.55197790     1.48540681    -5.49211185
O       4.88188333     0.37472653     0.11695339   -10.55235533     1.48479951     5.49168864
O       2.26067709     2.15921352    11.24622287    10.55235533    -1.48479951    -5.49168864
O       5.83188943     0.37471629     5.79857885    10.55197790     1.48540681     5.49211185
O       1.31067089     2.15922380     5.56459774   -10.55197790    -1.48540681    -5.49211185
O       0.25951827     1.54128612     3.06947745     3.04532447    -0.84362400     7.09142602
O       6.88304215     0.99265392     8.29369910    -3.04532447     0.84362400    -7.09142602
O       3.83079695     0.99263043     2.61214695     3.04821054     0.84395078    -7.09191865
O       3.31176347     1.54130966     8.75102945    -3.04821054    -0.84395078     7.09191865
O       0.25950741     0.27431598     2.61211068     3.04532447    -0.84362400    -7.09142602
O       6.88305300     2.25962411     8.75106572    -3.04532447     0.84362400     7.09142602
O       3.31175266     0.27433946     8.29373532    -3.04821054    -0.84395078    -7.09191865
O       3.83080776     2.25960058     3.06944118     3.04821054     0.84395078     7.09191865
