# total energy = -19910.73057630 eV

CRYSTAL
PRIMVEC
        6.54612335     0.00000000     0.00000000
        1.71500090     6.75267531     0.00000000
        0.00000000     0.00000000    11.81017459
PRIMCOORD
24 1
Ti      3.38896288     4.00162933     4.38149076    -0.27582805    -1.80893604     0.66496646
Ti      4.87216156     2.75104642     7.42868449     0.27582805     1.80893604    -0.66496646
Ti      6.34430223     2.75104875     1.52354971     0.18826190    -0.41852356    -0.26248839
Ti      1.91682224     4.00162726    10.28662567    -0.18826190     0.41852356     0.26248839
Ti      2.53146257     0.62529173     1.52359707    -0.27582805    -1.80893604    -0.66496646
Ti      5.72966190     6.12738429    10.28657832     0.27582805     1.80893604     0.66496646
Ti      1.05932180     0.62528914     7.42863714    -0.18826190     0.41852356    -0.26248839
Ti      7.20180266     6.12738681     4.38153811     0.18826190    -0.41852356     0.26248839
O       2.67577035     2.37773192     6.02664197     1.78904778     1.97111923    -0.58316884
O       5.58535402     4.37494384     5.78353328    -1.78904778    -1.97111923     0.58316884
O       1.80509851     2.37775917     0.12159240    -0.78368899     0.15133313     0.92941634
O       6.45602601     4.37491671    11.68858252     0.78368899    -0.15133313    -0.92941634
O       4.72785369     0.99860604     0.12155408    -1.78904778    -1.97111923    -0.58316884
O       3.53327075     5.75406971    11.68862084     1.78904778     1.97111923     0.58316884
O       5.59852566     0.99857884     6.02668029     0.78368899    -0.15133313     0.92941634
O       2.66259872     5.75409699     5.78349496    -0.78368899     0.15133313    -0.92941634
O       1.28099657     4.10736006     3.19022298     0.52168268     1.60169990     1.72250735
O       6.98012781     2.64531570     8.61995227    -0.52168268    -1.60169990    -1.72250735
O       4.18273472     2.64525272     2.71490224     0.60258941     1.65988888     0.88224301
O       4.07838973     4.10742309     9.09527282    -0.60258941    -1.65988888    -0.88224301
O       0.42349623     0.73102226     2.71486451     0.52168268     1.60169990    -1.72250735
O       7.83762821     6.02165355     9.09531054    -0.52168268    -1.60169990     1.72250735
O       3.22088939     0.73108523     8.61998993    -0.60258941    -1.65988888     0.88224301
O       5.04023505     6.02159052     3.19018526     0.60258941     1.65988888    -0.88224301
