# total energy = -19903.42155191 eV

CRYSTAL
PRIMVEC
        6.88375103     0.00000000     0.00000000
        0.00002254     3.13988253     0.00000000
        0.00000000     0.00000000    10.47653105
PRIMCOORD
24 1
Ti      2.49504191     1.86069149     3.88671830    -1.01951632     0.80366287    -0.85087734
Ti      4.38873137     1.27919109     6.58981290     1.01951632    -0.80366287     0.85087734
Ti      5.93679960     1.27919216     1.35150540    -1.01794486    -0.80378345     0.85312577
Ti      0.94697367     1.86069052     9.12502590     1.01794486     0.80378345    -0.85312577
Ti      2.49503079     0.29075028     1.35154743    -1.01998580     0.80330523     0.85174612
Ti      4.38874249     2.84913235     9.12498387     1.01998580    -0.80330523    -0.85174612
Ti      0.94696255     0.29074911     6.58977087     1.01832821     0.80331011     0.85366570
Ti      5.93681072     2.84913352     3.88676033    -1.01832821    -0.80331011    -0.85366570
O       2.17875852     1.10560600     5.34609364     6.74940901    -1.58337616     3.64998671
O       4.70501475     2.03427652     5.13043756    -6.74940901     1.58337616    -3.64998671
O       1.26317296     1.10561867     0.10786175    -6.74997105    -1.58404156     3.65061380
O       5.62060037     2.03426391    10.36866915     6.74997105     1.58404156    -3.65061380
O       4.70500368     0.46433526     0.10782777    -6.75219197     1.58360704     3.64882071
O       2.17876959     2.67554732    10.36870313     6.75219197    -1.58360704    -3.64882071
O       5.62058930     0.46432259     5.34612762     6.75202794     1.58400788     3.64825919
O       1.26318393     2.67555998     5.13040357    -6.75202794    -1.58400788    -3.64825919
O       0.25011620     1.90985453     2.82997243     2.41038054    -1.04227419     0.77983439
O       6.63365707     1.23002800     7.64655877    -2.41038054     1.04227419    -0.77983439
O       3.69200048     1.22999874     2.40832648     2.41301361     1.04247113    -0.77895584
O       3.19177280     1.90988383     8.06820457    -2.41301361    -1.04247113     0.77895584
O       0.25010513     0.33991327     2.40829305     2.41033966    -1.04239940    -0.77738953
O       6.63366814     2.79996931     8.06823800    -2.41033966     1.04239940     0.77738953
O       3.19176173     0.33994252     7.64659215    -2.41270199    -1.04278429    -0.77867945
O       3.69201155     2.79994006     2.82993900     2.41270199     1.04278429     0.77867945
