# total energy = -19937.49466658 eV

CRYSTAL
PRIMVEC
        5.68182803     0.00000000     0.00000000
        2.84575749     5.33573752     0.00000000
        0.00000000     0.00000000    10.52328954
PRIMCOORD
24 1
Ti      3.74578266     3.16195312     3.90406538     1.83180678    -3.72638373     0.84407086
Ti      4.78180301     2.17378454     6.61922427    -1.83180678     3.72638373    -0.84407086
Ti      6.05957508     2.17378644     1.35753740    -4.11109264    -0.35141645     1.09707958
Ti      2.46801077     3.16195146     9.16575231     4.11109264     0.35141645    -1.09707958
Ti      2.32290413     0.49408454     1.35757961     1.83180678    -3.72638373    -0.84407086
Ti      6.20468165     4.84165333     9.16571015    -1.83180678     3.72638373     0.84407086
Ti      1.04513197     0.49408248     6.61918206     4.11109264     0.35141645     1.09707958
Ti      7.48245380     4.84165533     3.90410754    -4.11109264    -0.35141645    -1.09707958
O       2.80037409     1.87880393     5.36995412     1.26333875     1.88516696    -1.25709636
O       5.72721165     3.45693377     5.15333553    -1.26333875    -1.88516696     1.25709636
O       2.04466391     1.87882541     0.10834317     1.12123922    -1.13025737     0.93925467
O       6.48292190     3.45691234    10.41494614    -1.12123922     1.13025737    -0.93925467
O       4.30433301     0.78906498     0.10830902    -1.26333875    -1.88516696    -1.25709636
O       4.22325271     4.54667266    10.41498030     1.26333875     1.88516696     1.25709636
O       5.06004327     0.78904355     5.36998822    -1.12123922     1.13025737     0.93925467
O       3.46754242     4.54669417     5.15330138     1.12123922    -1.13025737    -0.93925467
O       1.93738496     3.24549799     2.84260304     0.65150647     1.75224551     1.70012640
O       6.59020078     2.09023971     7.68068656    -0.65150647    -1.75224551    -1.70012640
O       4.16213933     2.09018987     2.41907521     1.36320686     0.98373220     0.35906652
O       4.36544641     3.24554783     8.10421422    -1.36320686    -0.98373220    -0.35906652
O       0.51450632     0.57762920     2.41904162     0.65150647     1.75224551    -1.70012640
O       8.01307941     4.75810844     8.10424781    -0.65150647    -1.75224551     1.70012640
O       2.94256777     0.57767904     7.68072009    -1.36320686    -0.98373220     0.35906652
O       5.58501796     4.75805861     2.84256945     1.36320686     0.98373220    -0.35906652
