# total energy = -19950.80864213 eV

CRYSTAL
PRIMVEC
        5.65741714     0.00000000     0.00000000
        0.89815900     5.95383835     0.00000000
        0.00000000     0.00000000    10.15428814
PRIMCOORD
24 1
Ti      2.58278978     3.52823903     3.76716851     0.19235330    -1.43996691     0.79474371
Ti      3.97278629     2.42559915     6.38711986    -0.19235330     1.43996691    -0.79474371
Ti      5.24506794     2.42560116     1.30993507    -0.35735982    -0.17845597    -0.07388273
Ti      1.31050815     3.52823725     8.84435342     0.35735982     0.17845597     0.07388273
Ti      2.13371040     0.55131996     1.30997579     0.19235330    -1.43996691    -0.79474371
Ti      4.42186569     5.40251839     8.84431270    -0.19235330     1.43996691     0.79474371
Ti      0.86142875     0.55131778     6.38707914     0.35735982     0.17845597    -0.07388273
Ti      5.69414734     5.40252057     3.76720923    -0.35735982    -0.17845597     0.07388273
O       2.10686528     2.09644762     5.18165556     1.29608613     1.46047558    -0.41798388
O       4.44871080     3.85739056     4.97263275    -1.29608613    -1.46047558     0.41798388
O       1.35439407     2.09647169     0.10454408    -0.66677703     0.30285344     0.55026796
O       5.20118207     3.85736654    10.04974400     0.66677703    -0.30285344    -0.55026796
O       3.99963141     0.88047132     0.10451115    -1.29608613    -1.46047558    -0.41798388
O       2.55594467     5.07336686    10.04977694     1.29608613     1.46047558     0.41798388
O       4.75210268     0.88044730     5.18168856     0.66677703    -0.30285344     0.55026796
O       1.80347335     5.07339094     4.97259982    -0.66677703     0.30285344    -0.55026796
O       0.75185826     3.62146198     2.74292660     0.24833652     0.60344533     0.75976075
O       5.80371782     2.33237614     7.41136177    -0.24833652    -0.60344533    -0.75976075
O       3.38610620     2.33232077     2.33424988     0.65534847     0.81130393     0.11439099
O       3.16946987     3.62151735     7.82003832    -0.65534847    -0.81130393    -0.11439099
O       0.30277887     0.64454274     2.33421741     0.24833652     0.60344533    -0.75976075
O       6.25279721     5.30929538     7.82007073    -0.24833652    -0.60344533     0.75976075
O       2.72039048     0.64459811     7.41139413    -0.65534847    -0.81130393     0.11439099
O       3.83518559     5.30924001     2.74289419     0.65534847     0.81130393    -0.11439099
