# total energy = -19892.40186998 eV

CRYSTAL
PRIMVEC
        8.19062834     0.00000000     0.00000000
        0.00002546     2.90576848     0.00000000
        0.00000000     0.00000000    13.03059886
PRIMCOORD
24 1
Ti      2.96872372     1.72195561     4.83425935    -0.17983305     0.35850807     1.58521810
Ti      5.22192974     1.18381259     8.19633990     0.17983305    -0.35850807    -1.58521810
Ti      7.06389818     1.18381352     1.68098821    -0.17966336    -0.35833889    -1.58526489
Ti      1.12675534     1.72195479    11.34961114     0.17966336     0.35833889     1.58526489
Ti      2.96871133     0.26907143     1.68104047    -0.18028891     0.35748683    -1.58583619
Ti      5.22194220     2.63669688    11.34955889     0.18028891    -0.35748683     1.58583619
Ti      1.12674289     0.26907044     8.19628764     0.17967544     0.35750714    -1.58540399
Ti      7.06391063     2.63669787     4.83431160    -0.17967544    -0.35750714     1.58540399
O       2.59239442     1.02317039     6.64941501     4.11681746    -0.00623030    -0.20710321
O       5.59825910     1.88259787     6.38118424    -4.11681746     0.00623030     0.20710321
O       1.50298532     1.02318219     0.13415734    -4.12000254    -0.00637248    -0.20965811
O       6.68766826     1.88258607    12.89644152     4.12000254     0.00637248     0.20965811
O       5.59824665     0.42971357     0.13411502    -4.11684857     0.00680366    -0.20624806
O       2.59240687     2.47605463    12.89648383     4.11684857    -0.00680366     0.20624806
O       6.68765581     0.42970183     6.64945727     4.11820225     0.00687847    -0.20936295
O       1.50299760     2.47606642     6.38114198    -4.11820225    -0.00687847     0.20936295
O       0.29759976     1.76745310     3.51988990    -0.46029988     0.26414752     2.78929752
O       7.89305376     1.13831510     9.51070929     0.46029988    -0.26414752    -2.78929752
O       4.39292476     1.13828816     2.99545112    -0.45612415    -0.26419355    -2.79060184
O       3.79772876     1.76748009    10.03514790     0.45612415     0.26419355     2.79060184
O       0.29758731     0.31456886     2.99540953    -0.46099383     0.26483915    -2.79058230
O       7.89306622     2.59119939    10.03518949     0.46099383    -0.26483915     2.79058230
O       3.79771637     0.31459580     9.51075083     0.45607556     0.26469157    -2.79049206
O       4.39293716     2.59117240     3.51984831    -0.45607556    -0.26469157     2.79049206
