# total energy = -19958.97966981 eV

CRYSTAL
PRIMVEC
        7.60600008     0.00000000     0.00000000
        0.00000000     7.60600008     0.00000000
       -1.89786986    -1.89786986     4.85670466
PRIMCOORD
24 1
Ti      3.91525399     6.80724100     1.03110499    -2.67391614     0.76584424     1.73878089
Ti      3.80648102     2.96533002     1.24451101     0.90027519    -1.35320989    -0.99188569
Ti     -0.15756300     6.63241200     1.24686998     3.47479887    -1.80409851    -0.47787210
Ti      0.01405997     2.61841798     1.24318802    -0.60264701     3.19655733     1.39136250
Ti      5.55450821     2.77838821     3.73978479     1.67109580    -0.99396185     0.21264702
Ti      5.71307025    -1.01287076     3.68408381    -0.69874202     1.07884429    -0.37149086
Ti      1.92140021     2.91773524     3.60710979    -1.86917932    -0.66810089     0.56171889
Ti      1.91551020    -0.78575979     3.53120079     1.36929163    -0.32718354    -0.73858385
O       3.91240098     4.92853402     0.67010901     0.07654640    -2.47743416     1.93292111
O       4.03887498     1.13627299     0.53581800    -0.18601218    -2.07702095     2.51736264
O      -0.15039699     4.62639302     0.86020799    -0.11451209     1.47944082     0.13249439
O      -0.22408201     0.93756101     0.80398000     0.26260409    -2.57327310    -0.51969316
O       5.66509922     4.70179723     4.13231683    -0.71834823     0.17251389    -0.41964302
O       5.76450522     0.85641924     4.17232581     0.10004835    -0.57431473    -0.50345098
O       2.15532920     4.80287823     4.06664282     0.05214790     0.35857595    -2.86904803
O       1.90370420     0.95410521     4.19647180    -0.65192787     2.47864721    -1.13424104
O       3.73782424     2.36269525     3.27728779     0.82924407     1.83140440    -0.81084499
O       3.76623021    -0.75858876     3.02003483     1.22092993    -0.63056380     0.82743273
O      -0.02109380     2.64414822     3.41925679     0.93102380     0.84026588    -0.84819748
O       0.07869024    -1.03666580     3.38766480    -1.97502319    -0.12140625    -1.65606050
O       5.72221798     6.87993598     1.68504901     0.13582603    -0.68166835     0.57641377
O       5.75643500     2.69875899     1.77598399    -1.84112343     1.11003126     0.15054252
O       1.91467003     6.79457302     1.32055400    -0.67833106     0.11394362     1.31174569
O       1.88260802     2.66160901     1.64106099     0.98593050     0.85616713    -0.01241046
