# total energy = -19918.86455567 eV

CRYSTAL
PRIMVEC
        6.35783963     0.00000000     0.00000000
        2.29798850     6.36451078     0.00000000
        0.00000000     0.00000000    11.56289926
PRIMCOORD
24 1
Ti      3.66619702     3.77160309     4.28975317    -0.14486835    -2.18877553     0.67324953
Ti      4.98963133     2.59290751     7.27314621     0.14486835     2.18877553    -0.67324953
Ti      6.41942965     2.59290968     1.49165035    -0.24776265    -0.93167326     0.08259338
Ti      2.23639874     3.77160112    10.07124916     0.24776265     0.93167326    -0.08259338
Ti      2.51720293     0.58934787     1.49169671    -0.14486835    -2.18877553    -0.67324953
Ti      6.13862545     5.77516286    10.07120280     0.14486835     2.18877553     0.67324953
Ti      1.08740452     0.58934553     7.27309985     0.24776265     0.93167326     0.08259338
Ti      7.56842387     5.77516527     4.28979953    -0.24776265    -0.93167326    -0.08259338
O       2.82145726     2.24105237     5.90045899     1.83836438     2.11514657    -0.76981197
O       5.83437110     4.12345824     5.66244040    -1.83836438    -2.11514657     0.76981197
O       1.97583074     2.24107804     0.11904656    -0.40597991    -0.46907378     1.37294311
O       6.67999770     4.12343262    11.44385251     0.40597991     0.46907378    -1.37294311
O       4.68537699     0.94120289     0.11900904    -1.83836438    -2.11514657    -0.76981197
O       3.97045137     5.42330771    11.44389003     1.83836438     2.11514657     0.76981197
O       5.53100357     0.94117721     5.90049651     0.40597991     0.46907378     1.37294311
O       3.12482472     5.42333341     5.66240288    -0.40597991    -0.46907378    -1.37294311
O       1.62876185     3.87125614     3.12342756     0.58316369     2.32927326     2.26175041
O       7.02706651     2.49325447     8.43947182    -0.58316369    -2.32927326    -2.26175041
O       4.31012778     2.49319518     2.65805888     0.72508838     1.93710686     1.23783854
O       4.34570058     3.87131542     8.90484031    -0.72508838    -1.93710686    -1.23783854
O       0.47976773     0.68900079     2.65802194     0.58316369     2.32927326    -2.26175041
O       8.17606062     5.67550982     8.90487726    -0.58316369    -2.32927326     2.26175041
O       3.19670647     0.68906008     8.43950864    -0.72508838    -1.93710686     1.23783854
O       5.45912189     5.67545053     3.12339068     0.72508838     1.93710686    -1.23783854
