# total energy = -4978.19221522 eV

CRYSTAL
PRIMVEC
        4.36121489     0.00000000     0.00000000
        0.00000000     2.27778957     0.00000000
        0.00000000    -0.00012014     6.07410604
PRIMCOORD
6 1
Ti      2.18060724     1.13883492     3.03705302     0.00000000     0.00000000     0.00000000
Ti      0.00000000     0.00000000     0.00000000     0.00000000     0.00000000     0.00000000
O       2.18060724     0.44388432     1.18375382     0.00000000    -0.49086414     0.93197536
O       2.18060724     1.83378558     4.89035227     0.00000000     0.49086414    -0.93197536
O       0.00000000     0.69490341     4.22080807    -0.00000000     0.49107472     0.92645340
O       0.00000000     1.58276648     1.85329797    -0.00000000    -0.49107472    -0.92645340
