# total energy = -19517.30445292 eV

CRYSTAL
PRIMVEC
        5.93400000     0.00000000     0.00000000
        0.00000000     9.29699974     0.00000000
        0.00000000     0.00000000     4.64899994
PRIMCOORD
23 1
Ti      4.50417397     7.07141501     2.25688700     0.17571440    -0.22134301    -0.16958180
Ti      4.45687802     2.26136500     2.37299198    -0.36321268    -0.68954930    -0.84841756
Ti      1.48885998     7.07973299     2.38847401    -1.12800097     0.64920122    -0.12985721
Ti      1.41866499     2.29324698     2.27975999     0.45891689    -0.56851920     0.12792683
Ti      2.96151698     4.42610599     0.00463300     0.46850196     0.85121544     1.54733339
Ti      2.93514200     0.13565702     4.61371700    -0.83980154    -1.25965975    -0.05513450
Ti      0.04112898     4.60468400     0.06660500    -0.06892410     1.41652024    -0.11502786
Ti      5.81916499     0.08981302     0.02280600     1.04631879    -1.01573422    -0.81285585
O       4.46652100     5.63742198     0.92063501     0.17731337    -1.23602051    -0.71375933
O       4.44831498     1.02858500     0.83352503    -0.43339328    -0.46930903    -0.08678068
O       1.56838199     5.49534799     0.90916298     0.17313995     0.26879377    -0.32043799
O       1.35530200     0.94117301     0.84671599     1.01387943     0.39198925     0.72561083
O       4.38852297     8.38476400     3.71911000    -0.10555411    -0.09514628     0.75166717
O       4.54560300     3.54257800     3.56888202    -0.15338282     2.99637271     2.55872142
O       1.46537499     8.47210698     3.81984201     0.50132159    -1.49700017    -0.91727893
O       1.61101600     3.61387998     3.79147700    -1.43143548     0.28277929    -1.21038686
O       2.93614399     1.44591497     3.28395902     0.13817036    -0.24276776    -0.67998685
O       0.17266498     6.08209301     3.25163799    -0.27288182    -0.65279871     0.31847932
O       5.93235098     1.21005999     3.11086800    -0.17169396     1.00588021    -0.01105472
O       3.03778698     7.95994902     1.45056702    -0.34101068    -0.72076147     0.69685175
O       2.90143102     3.17344099     1.32057500     0.73457164    -0.44612076     0.80699348
O       0.00495802     7.90536999     1.53846300     0.78609631     0.78163031    -1.23612772
O       0.05423501     3.20610700     1.39426601    -0.36465378     0.47034776    -0.22689660
