# total energy = -4985.23947919 eV

CRYSTAL
PRIMVEC
        4.35460470     0.00000000     0.00000000
       -0.00000969     4.35460470     0.00000000
       -2.17733650    -2.17734135     5.55744408
PRIMCOORD
6 1
Ti     -0.00019176     3.26611846     1.38936087    -0.00117011     0.00117011     0.00000000
Ti      2.17745015    -1.08885523     4.16808285     0.00117011    -0.00117011     0.00000000
O       0.00004350     1.08864378     0.90526217    -0.00037050    -0.00226823    -1.21068973
O       2.17721477     1.08861933     4.65218161     0.00037050     0.00226823     1.21068973
O      -0.00002460    -1.08862487     3.68398415    -0.00226823    -0.00037050    -1.21068973
O       2.17728280     3.26588792     1.87345963     0.00226823     0.00037050     1.21068973
