# total energy = -19960.64825807 eV

CRYSTAL
PRIMVEC
        5.93400000     0.00000000     0.00000000
        0.00000000     9.29699974     0.00000000
        0.00000000     0.00000000     4.64899994
PRIMCOORD
24 1
Ti      4.44143202     6.78283201     2.37486198     0.72260290     2.47016462     0.15761048
Ti      4.43456600     2.45791498     2.34982603     0.43230133    -1.97713047     0.25194403
Ti      1.53551902     6.98410601     2.22404102    -0.72232753     1.50793148     0.00622233
Ti      1.44489297     2.35005399     2.30923898    -0.43399955    -0.47050897     1.17534348
Ti      2.98541198     4.66022898     0.05418399    -0.48127598    -0.92776544    -0.32217811
Ti      2.89315099     0.06191199     0.03237602     2.21630049     0.08773610    -1.01977394
Ti      0.02639700     4.68769201     4.58767799     0.61164793    -1.06160298    -0.26003659
Ti      0.00742298     0.02144702     0.07458002    -2.57381406    -0.37303224    -0.90288949
O       4.48436401     5.47041200     0.88413501    -0.53288678     0.31918869     0.29116031
O       4.46530199     0.80488500     0.99829902    -0.17101056     0.30113286    -0.43891550
O       1.45582303     5.57872400     0.88143499     0.55332063    -0.77991075    -0.46066910
O       1.42620497     0.89066199     1.03605502     0.78191930    -0.69997204    -0.83478711
O       4.46524801     8.42546900     3.70205498    -0.17287307    -0.60977796    -0.05780125
O       4.47614002     3.71747500     3.72864498    -0.30232225     1.24481188     0.71990761
O       1.59387098     8.46709202     3.63676001    -0.41015924    -0.29412197     0.34316012
O       1.43109298     3.72953802     3.69184297     0.39232606     0.76542747     0.93472593
O       2.99002800     5.96722598     3.22071202    -0.31874029     0.17377399     0.00836483
O       2.98413799     1.61834802     3.38107099    -0.54993603    -1.14315300    -0.08680227
O       0.07807698     5.98625001     3.15156602    -0.45663786     0.27477184     0.32817933
O       5.86177302     1.43313698     3.20058403     0.72478705     0.10400965     0.52831253
O       3.02404198     7.67649602     1.29214702    -0.33474130     0.42342254     0.63786625
O       2.94879599     3.17652800     1.38522501    -0.24591788     0.97756644    -0.83807221
O       5.89361298     7.83888798     1.36201800     0.92176654    -0.69772181     0.44608605
O       5.91374701     3.25236402     1.43413401     0.34967042     0.38476033    -0.60695798
