# total energy = -4988.73405769 eV

CRYSTAL
PRIMVEC
        3.07959810     0.00000000     0.00000000
        1.18775857     4.67679868     0.00000000
       -0.00000764    -0.00006323     4.86400714
PRIMCOORD
6 1
Ti      2.13367439     2.33836763     2.43200363     0.00000000     0.00000000     0.00000000
Ti      0.00000000     0.00000000     0.00000000     0.00000000     0.00000000     0.00000000
O       1.77127412     0.91142680     0.94792338    -0.57152868     0.26086140     0.11472369
O       2.49607461     3.76530846     3.91608387     0.57152868    -0.26086140    -0.11472369
O       0.36239703     1.42691524     3.37992798     0.57160967    -0.26118818     0.11499675
O       0.82535378     3.24982011     1.48407927    -0.57160967     0.26118818    -0.11499675
