# total energy = -19960.85256817 eV

CRYSTAL
PRIMVEC
        7.60600008     0.00000000     0.00000000
        0.00000000     7.60600008     0.00000000
       -1.89786986    -1.89786986     4.85670466
PRIMCOORD
24 1
Ti      3.83243098     6.60239902     1.19615300     0.31734367    -0.52355676     0.51064827
Ti      3.84002700     2.72029302     1.16991401    -0.83044297     0.51763679     1.34866701
Ti     -0.02576702     6.72010202     1.15465000    -0.34032805    -0.62931398    -0.05587369
Ti     -0.01921400     2.87726202     1.20696298     0.50382405     0.46651553     0.68337685
Ti      5.67353520     2.85336824     3.61670584    -1.22580963     1.52531986     0.32597666
Ti      5.74094222    -0.79048080     3.66292481    -0.97502901    -1.35776872    -0.52015519
Ti      1.87548625     2.73300724     3.69340283     1.05347083     1.08822342    -0.99418734
Ti      1.90651022    -0.96345878     3.64819284     0.69706746    -1.01879692    -1.20406220
O       3.88847799     4.58701202     0.77583798    -0.56144121     1.09280281     0.10593386
O       3.92050501     0.83324700     0.73865699    -0.51524515     0.25999930     0.16838007
O      -0.04114099     4.80919799     0.90464502     0.54881323    -0.46060019    -0.57904761
O      -0.08244100     0.96724002     0.76869901     0.62159836     1.01831458    -0.06544488
O       5.45484921     4.82429123     4.04072879     1.40017651    -0.47205832     0.22831610
O       5.46264320     1.05836821     4.14565581     0.82237511    -0.61348524    -0.32301398
O       2.06530425     4.61645623     4.05363183    -1.07680617     0.87676553     0.02552412
O       1.99963721     0.82501623     4.05817482    -0.34354887     0.97905151     0.17340323
O       3.81090124     2.87935920     3.28718182    -0.21324018    -0.63708412    -0.70855927
O       3.86094823    -0.80377579     3.14941883    -1.03525610    -0.47228380     0.44975193
O      -0.02457076     2.79472820     3.13279880     0.11697855     0.06912542     1.27723325
O      -0.05338578    -0.63952478     3.10906779     0.77001611    -0.64123157     1.72214405
O       5.70261402     6.65848202     1.71090101    -0.05961773    -0.21850271    -1.04333117
O       5.64640598     2.73139299     1.63163000     1.01631915     0.18215090     0.42975208
O       1.91779799     6.77144703     1.73731601    -0.01477254    -0.75346000    -1.49378218
O       1.95192299     2.78132800     1.65743400    -0.67644541    -0.27776332    -0.46165023
