# total energy = -19959.87091052 eV

CRYSTAL
PRIMVEC
        7.60600008     0.00000000     0.00000000
        0.00000000     7.60600008     0.00000000
       -1.89786986    -1.89786986     4.85670466
PRIMCOORD
24 1
Ti      3.71155499     6.52756701     1.24937399     1.06809347    -0.18050539     0.97261218
Ti      3.82676201     2.84231002     1.24526001    -1.22917520     0.44447397    -1.04907784
Ti      0.02988502     6.63662198     1.17993398    -0.87305131     1.43781259     0.72865913
Ti      0.05290799     3.00765198     1.16943198     1.10334022    -1.50532207    -0.18644619
Ti      5.82209923     2.87849124     3.54808584     0.27558277     0.72160660     0.18318140
Ti      5.72726024    -0.93206677     3.69694181     0.01825150    -0.44011029    -0.66770545
Ti      1.88183923     2.94189721     3.62169280     0.36872975    -1.83902670     0.22836033
Ti      1.85062624    -1.03121676     3.72669480    -0.33943074     1.31929651    -0.44173368
O       3.68629402     4.65550501     0.83350598     0.93814601     0.28208483    -0.80405085
O       3.54558600     0.75492501     0.83676899     0.86736737     2.62205877    -0.16926504
O      -0.00113699     4.84016099     0.81943399    -0.46867603    -1.76433124    -1.36389386
O      -0.07527599     1.00115700     0.84005100     0.27117127    -0.27403110    -1.10687395
O      -1.53491878     4.68105623     3.98915380    -0.91536603     0.47251854     0.38729801
O       6.03470725     0.93248525     3.99512181    -1.56020974     0.92576435     0.70708526
O       1.57492124     4.65586623     4.15458980     0.53203420     0.97427234    -0.33094918
O       1.66065023     0.94226624     3.94751083     1.67873275    -1.59700327     1.33527233
O       3.71906422     3.06872321     3.20340480     2.25191928    -1.06113941    -0.18251651
O       3.79500724    -1.18292579     3.34835381    -0.23810635     0.54352190    -0.10981597
O       0.10276823     2.72725122     3.24795581    -2.71093104     0.51224262    -1.76673933
O      -0.04383376    -0.97941279     3.09507979     0.42616436    -0.09663289     0.76768489
O       5.66820501     6.57585999     1.56674599    -0.48930425     0.29725460     0.40518133
O       5.72007899     3.04625498     1.50015400    -0.12355467    -0.87395763     1.29385544
O       1.87936300     6.48614598     1.68680000    -0.10110610     0.15306066     0.60732822
O       1.90668098     3.13361802     1.57234002    -0.75062151    -1.07390802     0.56254935
