# total energy = -4988.85261802 eV

CRYSTAL
PRIMVEC
        4.30896703     0.00000000     0.00000000
       -0.00000803     3.52551828     0.00000000
       -2.15451227    -1.76279943     5.04977032
PRIMCOORD
6 1
Ti     -0.00018702     2.64427011     1.26244272    -0.00181494    -0.00336789     4.24926686
Ti      2.15463376    -0.88155147     3.78732777     0.00181494     0.00336789    -4.24926686
O       0.00004445     0.88137215     0.82256638     0.00037435     0.00155372    -0.86629908
O       2.15440218     0.88134638     4.22720416    -0.00037435    -0.00155372     0.86629908
O      -0.00002084    -0.88136413     3.34745144    -0.00182008    -0.00032267    -1.08726131
O       2.15446736     2.64408266     1.70231905     0.00182008     0.00032267     1.08726131
