# total energy = -4987.36068683 eV

CRYSTAL
PRIMVEC
        3.26757076     0.00000000     0.00000000
        0.51070225     5.09425840     0.00000000
       -0.00000340    -0.00006644     5.12622114
PRIMCOORD
6 1
Ti      1.88913486     2.54709598     2.56311057     0.00000000     0.00000000     0.00000000
Ti      0.00000000     0.00000000     0.00000000     0.00000000     0.00000000     0.00000000
O       1.73331306     0.99278303     0.99902499     0.38733401    -0.66167596    -0.71100979
O       2.04495672     4.10140893     4.12719610    -0.38733401     0.66167596     0.71100979
O       0.15582041     1.55428602     3.56213660    -0.38692134     0.66149624    -0.71046317
O       0.35487868     3.53990582     1.56408449     0.38692134    -0.66149624     0.71046317
