# total energy = -19940.25741772 eV

CRYSTAL
PRIMVEC
        6.83199342     0.00000000     0.00000000
        0.00002689     4.84753794     0.00000000
        0.00000000     0.00000000    10.61438021
PRIMCOORD
24 1
Ti      2.47628506     2.87264647     3.93785935     0.46758434     0.01114599     0.55374358
Ti      4.35573537     1.97489146     6.67652098    -0.46758434    -0.01114599    -0.55374358
Ti      5.89216400     1.97489315     1.36928838     0.46768384    -0.01152780    -0.55375181
Ti      0.93985643     2.87264502     9.24509201    -0.46768384     0.01152780     0.55375181
Ti      2.47627161     0.44887762     1.36933093     0.46781959     0.01172115    -0.55394310
Ti      4.35574881     4.39866049     9.24504946    -0.46781959    -0.01172115     0.55394310
Ti      0.93984299     0.44887582     6.67647837    -0.46813044     0.01209139    -0.55330983
Ti      5.89217744     4.39866229     3.93790190     0.46813044    -0.01209139     0.55330983
O       2.16237858     1.70690054     5.41643699     0.99450179     0.75745961    -0.65407655
O       4.66964185     3.14063746     5.19794334    -0.99450179    -0.75745961     0.65407655
O       1.25367715     1.70692007     0.10928100    -0.99491496     0.75729326    -0.65427863
O       5.57834339     3.14061792    10.50509898     0.99491496    -0.75729326     0.65427863
O       4.66962846     0.71686843     0.10924654    -0.99429867    -0.75756066    -0.65437634
O       2.16239196     4.13066950    10.50513344     0.99429867     0.75756066     0.65437634
O       5.57832994     0.71684895     5.41647139     0.99487845    -0.75702098    -0.65412385
O       1.25369042     4.13068910     5.19790888    -0.99487845     0.75702098     0.65412385
O       0.24823861     2.94854736     2.86720892    -1.39599949     0.38711366     0.53171976
O       6.58378181     1.89899063     7.74717141     1.39599949    -0.38711366    -0.53171976
O       3.66424296     1.89894543     2.44001501    -1.39483658    -0.38626211    -0.53153644
O       3.16777746     2.94859257     8.17436515     1.39483658     0.38626211     0.53153644
O       0.24822517     0.52477834     2.43998107    -1.39575267     0.38691080    -0.53204500
O       6.58379526     4.32275960     8.17439903     1.39575267    -0.38691080     0.53204500
O       3.16776408     0.52482354     7.74720523     1.39499753     0.38656962    -0.53191619
O       3.66425635     4.32271445     2.86717504    -1.39499753    -0.38656962     0.53191619
