# total energy = -19515.81317508 eV

CRYSTAL
PRIMVEC
        5.17600016     0.00000000     0.00000000
        0.00000000     5.50899976     0.00000000
        0.00000000     0.00000000     9.26300011
PRIMCOORD
23 1
Ti      1.87968098     3.18991899     3.27512002     0.02833280     0.23832490     3.12067633
Ti      3.30273899     2.20278201     5.90486001     0.83517098     0.45130873    -2.73078151
Ti      4.50203102     2.22695101     1.39084101    -0.48526531    -0.57181690    -3.48850646
Ti      0.70686301     3.40744698     7.96303698     0.81279800    -1.26411985     1.44436556
Ti      1.85933602     0.58239401     1.35525501    -0.09149223    -0.04302100    -3.25220579
Ti      3.36423802     5.09592098     7.92051701    -0.29657017    -0.12150164     3.84363944
Ti      0.78325901     0.59660898     5.82975298    -1.19969004     0.01582257    -2.50199284
Ti      4.44012098     4.85453302     3.45005099     0.06068294     1.71114846     2.54601734
O       1.55758101     1.89616703     4.76146397     0.83283256     0.17016801    -0.60360114
O       3.37328700     3.49371499     4.42833499     0.62982075     0.90012092     0.57238023
O       0.85140598     2.11852598     0.17423902    -0.30527002     0.54097419    -0.25155965
O       3.44698398     0.85341802     0.12931700     0.62500430     0.16641214    -0.48629349
O       1.82462898     4.74548901     8.90453898    -1.53505354    -0.56575166     1.50601961
O       4.30185300     0.85812499     4.79460502    -0.16873951    -1.37557490    -1.19261333
O       0.87345801     4.65978400     4.52536303    -0.15197179     0.23634437    -0.10900350
O       0.04198302     3.25244398     2.70244101     0.59712942     1.09004813    -0.42334823
O       4.99854898     2.22827502     6.64341502     0.52351691     0.08773430     1.52390729
O       2.82960902     1.89906898     2.28424800    -0.98678667     0.89340366     0.19121944
O       2.30325901     3.08918899     7.15424199     1.34226393     1.24327205     0.03801120
O       5.17358600     0.74203102     2.03302999     1.60890311    -3.56224907     1.85826936
O       5.08429898     4.87333199     7.06578197    -0.48853369     0.03950013     0.81021199
O       2.69653100     0.59782001     6.70719501    -2.57876266     0.08167961    -1.58510934
O       2.59460199     4.82662898     2.52486098     0.39167994    -0.36222666    -0.82970198
