# total energy = -19517.91650279 eV

CRYSTAL
PRIMVEC
        5.93400000     0.00000000     0.00000000
        0.00000000     9.29699974     0.00000000
        0.00000000     0.00000000     4.64899994
PRIMCOORD
23 1
Ti      4.53046800     6.90755300     2.26085900    -0.18956031     0.30712764     0.65887680
Ti      4.45719198     2.28600100     2.36252300    -0.70341398    -0.39494962     0.27079537
Ti      1.51079301     7.07976601     2.31838401     0.02774916    -0.11902361    -0.55843636
Ti      1.38977001     2.39931002     2.30421100     0.74224536    -0.72841514     0.15974836
Ti      2.94364699     4.55214500     0.10010599     0.26102543    -0.60747451     0.67319836
Ti      2.97877298     9.29100898     4.53581502     0.75270359     0.51765479     0.38568979
Ti      0.00308701     4.66117398     0.00740203     0.25125704     0.04471664    -0.50355357
Ti      0.02958402     0.01350302     0.08302399    -0.65404646     0.86805797    -0.07020863
O       4.47823000     5.63574099     0.79152798    -1.13516252    -0.22615046     0.39421145
O       4.43081101     0.95109398     0.89840898     0.21062639    -0.47843877    -0.16492682
O       1.49967901     5.54045601     0.98698701     0.66503356     0.13617107    -0.52688120
O       1.49908999     0.92827998     0.93770902    -0.64698801    -0.41749794    -0.18878846
O       4.44076198     8.36289199     3.65685600    -0.05169719     0.13315800     0.49768477
O       4.49632501     3.79844801     3.73282902    -0.95596068    -0.20082740    -0.31878271
O       1.45954399     8.48874701     3.75675402    -0.04950018    -1.51801381    -1.00477772
O       1.43379602     3.59129400     3.82682402     0.42096173     1.53195048     0.00055819
O       2.82493898     1.54210299     3.28092102     1.37060032    -0.96412702    -0.03698019
O       0.06822799     6.00198002     3.20168403     0.03877354     0.31368267     0.15587344
O       5.91515002     1.35240602     3.18813899    -0.23287313     0.35385257     0.18164671
O       3.01437502     7.87300297     1.33588500    -0.66989655    -0.73222448     1.07688202
O       2.98302000     3.22719100     1.39441100    -0.19377049     0.34868697     0.04532162
O       5.90768899     7.73345301     1.43772802     0.77445230     1.98296662    -1.37509307
O       5.85085499     3.27683000     1.43340401    -0.03255892    -0.15088242     0.24794211
