# total energy = -4986.36815864 eV

CRYSTAL
PRIMVEC
        3.93979436     0.00000000     0.00000000
        1.85401405     3.47629278     0.00000000
       -2.89694122    -1.73816860     5.20312675
PRIMCOORD
6 1
Ti      1.39041758     2.60735347     1.30078134     0.00037435    -0.00037435     0.00000000
Ti      1.50644947    -0.86922941     3.90234477    -0.00037435     0.00037435    -0.00000000
O       0.46354434     0.86906877     0.84754672    -0.00020826    -0.00033013    -2.61206412
O       2.43332254     0.86905527     4.35557945     0.00020826     0.00033013     2.61206412
O      -0.46350689    -0.86904626     3.44911010    -0.00033013    -0.00020826    -2.61206412
O       3.36037369     2.60717021     1.75401602     0.00033013     0.00020826     2.61206412
