# total energy = -4953.26573420 eV

CRYSTAL
PRIMVEC
        5.21126394     0.00000000     0.00000000
       -0.00000720     2.50912693     0.00000000
       -2.60566117    -1.25463356     5.61420862
PRIMCOORD
6 1
Ti     -0.00022263     1.88192839     1.40355186    -0.01987798    -0.02077606    37.19013476
Ti      2.60581815    -0.62743519     4.21065606     0.01987798     0.02077606   -37.19013476
O       0.00005545     0.62726970     0.91450858     0.01865850     0.01998571   -29.65978836
O       2.60553991     0.62722340     4.69969940    -0.01865850    -0.01998571    29.65978836
O      -0.00002129    -0.62729823     3.72161278    -0.00156889    -0.00011776    -1.49035053
O       2.60561659     1.88179132     1.89259520     0.00156889     0.00011776     1.49035053
