# total energy = -19074.48745414 eV

CRYSTAL
PRIMVEC
        5.17600016     0.00000000     0.00000000
        0.00000000     5.50899976     0.00000000
        0.00000000     0.00000000     9.26300011
PRIMCOORD
22 1
Ti      1.86298100     3.36457600     3.26613602     0.21300543     1.52701884     0.27110930
Ti      3.51149900     2.25851803     6.03421601     0.65125167     0.19730010    -1.02203934
Ti      4.40600302     2.19176798     1.33061799     1.05578534     1.17324417    -2.15727231
Ti      0.72463897     3.25572900     8.09065802    -0.00658614     0.19675760     1.22182878
Ti      1.86729601     0.58082500     1.20327398    -0.68231164    -0.84770280    -1.64111442
Ti      3.26235102     5.01969200     7.96316001     1.26394578     0.49184013     0.66932576
Ti      0.64044100     0.20833698     6.00909301    -0.18469115     0.71119542    -1.46037017
Ti      4.43024199     5.11424401     3.35978298     0.06198623    -1.06416431     1.52952001
O       3.31372699     3.46331799     4.44163501     0.24834526    -0.91604891     1.50596587
O       0.81299798     1.99230102     0.20595399     1.07827607    -1.18849391     0.16318952
O       4.27179399     3.53310599     8.98744899    -0.08110599     1.07898235     0.40516127
O       3.41359200     0.72123203     0.23065900     2.22004787     1.27805909    -1.06392237
O       1.79324898     4.73593302     8.99860802    -3.14248007    -0.32979373     1.23747395
O       4.42686499     0.95612301     4.72174398    -0.19111325    -0.57043441     0.46573263
O       0.96007200     4.72845601     4.30938102    -0.76137361    -0.01205642     2.15279319
O       0.10054098     3.53455398     2.40138699    -0.36995334    -0.96205882    -0.16848471
O       0.01436198     1.86894498     6.95737398    -0.47765535    -0.24131278    -1.00480909
O       2.66489398     2.10827100     2.03858799    -0.16585241     0.37107177     1.45700254
O       2.56754299     3.45396002     7.23424502    -0.99087422    -1.80174132    -2.25190951
O       0.14325299     0.70228901     2.20137900    -0.08290114     0.51156950    -0.23920807
O       2.39084001     0.74405602     6.46429498     0.36756839    -0.28120911     0.60806715
O       2.72339400     4.79573498     2.44621900    -0.02331323     0.67797702    -0.67804026
