# total energy = -19518.67830066 eV

CRYSTAL
PRIMVEC
        7.60600008     0.00000000     0.00000000
        0.00000000     7.60600008     0.00000000
       -1.89786986    -1.89786986     4.85670466
PRIMCOORD
23 1
Ti      3.76413001     6.65698699     1.14780398     0.79948457    -0.33507426     0.66872438
Ti      3.75805998     2.79525097     1.17531400     0.90325279     0.49444158     0.44959046
Ti      0.01262400     6.67105300     1.17757999    -0.83707848    -0.18800428    -0.21963734
Ti      0.05290301     2.85051100     1.15600998    -1.07124050     0.17164177    -0.12442216
Ti      5.69285721     2.89640125     3.68009683    -0.80324275     0.07864133     0.72087486
Ti      5.65676722    -0.91964778     3.56046879    -0.73171309    -0.00335246     0.00546771
Ti      2.07450024     2.85230824     3.72510282     0.02596867    -0.33298164     0.50187412
Ti      1.83342825    -0.99109877     3.60413179     0.92172823     0.18975314    -0.25103181
O       3.93763099     4.67075601     0.79626200    -0.80729738     0.41299054     0.71951320
O       3.73122498     0.93903598     0.73747200    -0.30410017     0.18402009     0.55750408
O      -0.26184399     4.78965499     0.84606198     1.42218901    -0.48539052     0.10408318
O       0.01960401     0.96779201     0.79185999     0.30936810     0.19010590    -0.07166207
O       5.67912824     4.78361322     4.02711079     0.56896271    -0.10773800     0.12528836
O       5.51746321     0.97386722     4.06998282     1.17092169    -0.36229865    -0.00690676
O       1.96829325     4.75764924     4.02503779    -0.71856318    -0.37032590     0.33695091
O       2.05210921     0.90629923     4.06334879    -1.02748365     0.03734657     0.29190105
O       3.82887422     2.86801925     3.50269783     0.29711499     0.05253563    -1.54886294
O       3.77785222    -0.97392575     3.22606380     0.04232063    -0.07512072    -0.59967095
O      -0.02179575    -1.03438780     3.17844780    -0.05817740     0.59690290     0.01732384
O       5.63624800     6.73133899     1.52322401     0.48542111     0.18670381     0.97782818
O       5.77717002     2.78653998     1.85940598     0.20171700    -0.16802037    -1.22977247
O       1.90179398     6.56564401     1.56691802    -0.44032446     0.04758394     0.13085017
O       1.87634701     2.93634000     1.83972001    -0.34922844    -0.21436092    -1.55580827
