# total energy = -19960.57236181 eV

CRYSTAL
PRIMVEC
        5.93400000     0.00000000     0.00000000
        0.00000000     9.29699974     0.00000000
        0.00000000     0.00000000     4.64899994
PRIMCOORD
24 1
Ti      4.47848501     7.08094502     2.19351701    -1.34107377    -1.26505599     0.65541712
Ti      4.44683503     2.23362399     2.35978398     0.65220452     0.90095885    -0.21434138
Ti      1.50062402     6.94958301     2.36438501     1.43754185    -0.24834475     0.93550472
Ti      1.48273100     2.22699002     2.28568001    -0.71212565     0.60514124    -0.24889959
Ti      2.98056498     4.60750102     0.10312299     0.49114131    -0.56187315    -0.59549214
Ti      2.97631902     0.04459102     4.62314001    -1.13861629     0.39176068     0.41708811
Ti      0.03878202     4.65471998     4.57023800    -0.25537055    -0.86885013    -0.43526324
Ti      5.88153001     9.28321103     0.04461102     1.45072673     1.17446622    -0.37002096
O       4.44565602     5.50512602     0.96478501     0.21485149     0.56968442     0.17164357
O       4.38047800     0.87177099     0.98520601     0.78815088     0.52046912     0.28194522
O       1.48525200     5.56303601     0.86646901    -0.39966322     0.20593361     0.72585894
O       1.43477802     0.95161998     0.85354602     0.37536783    -0.12618465     0.57550412
O       4.45749398     8.51081597     3.87093899     0.17632221    -1.68497257    -2.21738292
O       4.41791602     3.80465499     3.71903999     0.09107828    -0.19155420     0.25232790
O       1.59211300     8.48387403     3.77037298    -1.98493557    -1.42395742    -0.99973964
O       1.46855402     3.78394601     3.59284899    -0.09720111     0.79298816     1.59992096
O       3.00468599     6.23020400     3.29173200    -0.66913859    -0.18271449    -0.55443263
O       2.90654198     1.37640902     3.25490598     0.83520929     0.42774019    -0.09729469
O       5.85263302     6.11032001     3.27265601     0.82133715     0.60220066    -0.54220703
O       5.89952500     1.43624199     3.21439301     0.01815071    -1.01326725     1.21951582
O       2.97519299     7.83568698     1.34152301    -0.32239023    -0.07495694     0.79089245
O       2.95708200     3.15843400     1.41882401     0.11795763     0.81903036    -0.69577600
O       0.00450002     8.00801498     1.45128999     0.38695040    -0.96956362     0.60690347
O       0.02730200     3.06760099     1.45116701    -0.93647531     1.60092163    -1.26167241
