# total energy = -19073.65879284 eV

CRYSTAL
PRIMVEC
        5.17600016     0.00000000     0.00000000
        0.00000000     5.50899976     0.00000000
        0.00000000     0.00000000     9.26300011
PRIMCOORD
22 1
Ti      1.66957698     3.48264402     3.45966302     0.57008346     0.07135868     0.06758996
Ti      3.74369901     2.37065201     6.06711697     0.32289237     0.42224549    -1.79047345
Ti      4.34234998     2.20851702     1.26682398     0.58264227    -0.91276870     0.88274258
Ti      1.28754101     2.78297999     7.81250701    -1.87195586    -0.07917072    -0.59576416
Ti      1.76605700     0.63077198     1.58822000    -0.24508999     0.44223839    -0.22981968
Ti      3.08724400     5.45381800     7.80340701     0.97161639     0.98371780     0.54954265
Ti      0.53817998     5.47785302     6.23344098    -0.75271387     0.04885818    -0.33080083
Ti      4.39922299     5.02176801     3.60068500     0.06376955     0.07276790    -0.17794277
O       3.49257001     3.78235102     4.61108598    -0.67676011    -1.61808838     1.14128252
O       0.80905799     2.14934299     0.29075401    -0.14731398    -0.01354278    -0.70703589
O       0.11275698     3.49823803     6.47282997     0.04099420    -0.21347723    -0.49464289
O       3.21821701     0.82294598     0.34635900    -0.04881473    -0.71925583    -2.04169244
O       1.33805600     4.87946198     7.87543502    -0.90017235    -0.30134806     1.54359578
O       4.37666702     0.94065601     4.88033999    -0.28339635    -0.26103392     0.02719663
O       1.15219599     4.93872999     4.47619701    -1.26170121    -0.28900136     0.29791409
O       5.15216501     3.42511102     2.52563601     0.21651602     0.08757901     0.24794340
O       4.57926999     1.21811602     7.29620199     0.56395678    -1.21020431     0.83101633
O       2.58863298     1.97526601     2.42514298     0.18003822     0.15722302     1.13401684
O       3.00282001     3.24448801     7.58108002     1.72339720     2.09524982     1.47915594
O       5.14375400     0.75978402     2.24889398    -0.14837739    -0.13491175    -0.54632877
O       1.99942401     1.36338301     6.51397298     0.13941812    -0.44168072     0.24113486
O       2.59931601     4.56086098     2.37488701     0.96097125     1.81324572    -1.52863170
