# total energy = -19961.10499876 eV

CRYSTAL
PRIMVEC
        7.60600008     0.00000000     0.00000000
        0.00000000     7.60600008     0.00000000
       -1.89786986    -1.89786986     4.85670466
PRIMCOORD
24 1
Ti      3.70356102     6.70155398     1.27755199     0.79974296     0.04402373     0.53632898
Ti      3.75980600     2.97401599     1.24817001     0.49756778    -0.26354871    -1.31019635
Ti      0.07931700     6.52884598     1.17884297    -0.75540710     1.65106433     0.13018091
Ti      0.03110700     2.85763499     1.08561999    -0.15005709    -1.61299862     2.15287366
Ti      5.68273320     2.81862521     3.56432581     0.84067880    -0.04523678    -0.73173520
Ti      5.71981720    -1.05059676     3.58002682    -0.00645141     0.15563407     0.64452618
Ti      1.87613322     3.01965123     3.66506179    -0.58057074    -2.24084142    -0.15632416
Ti      1.83453724    -0.96349477     3.68709281     0.21631882     1.89809756     0.70060762
O       3.74981000     4.84173000     0.91372401     0.29251914     0.24748908    -0.63757366
O       3.70850301     1.04547702     0.78170598     0.14677302    -1.00716422     0.63108548
O       0.09890699     4.67226199     0.71632899    -0.05016481     1.01986444    -0.15712814
O       0.23577101     0.85125903     0.78440902    -0.61735295    -0.49219700    -0.15059240
O       5.84664221     4.70139521     4.00039480    -0.44413638    -0.51966488     0.45414595
O       5.70500522     0.88322620     4.11330381    -0.09955187     0.06423698    -2.26617425
O       1.75541424     4.85481523     4.12428080     0.25265777    -1.12019432     0.43200283
O       1.87652624     1.11285224     4.11572379     0.01240095    -0.74918169     0.20113927
O       3.82751725     2.94866221     3.31699683     0.34121148     0.04956677    -0.22603450
O       3.74539222    -1.00458078     3.25831980     0.73308709     0.46608667    -0.17995672
O       0.05947323     2.78856720     3.06667779    -1.25391874     0.30930100     1.30118643
O      -0.00673775    -1.02739779     3.26514079     0.14837096     0.60895778    -0.77316572
O       5.74621802     6.53632098     1.63593199    -0.38627831     0.41171553    -0.15287245
O       5.70582999     2.90785201     1.51931699     0.09588521    -0.38182105     0.97227742
O       1.88973699     6.33245999     1.71957301    -0.16676181     1.02657400    -0.40328308
O       1.94616602     2.84921901     1.75608402     0.13343748     0.48023648    -1.01131835
