# total energy = -19931.79947280 eV

CRYSTAL
PRIMVEC
        7.11148406     0.00000000     0.00000000
        0.00002799     5.04584631     0.00000000
        0.00000000     0.00000000    11.04860486
PRIMCOORD
24 1
Ti      2.57758763     2.99016383     4.09895360     0.53037996    -0.29339512     1.04198545
Ti      4.53392454     2.05568248     6.94965138    -0.53037996     0.29339512    -1.04198545
Ti      6.13320707     2.05568424     1.42530472     0.53138063     0.29304159    -1.04180650
Ti      0.97830510     2.99016231     9.62330032    -0.53138063    -0.29304159     1.04180650
Ti      2.57757363     0.46724080     1.42534901     0.52928158    -0.30134651    -1.04198802
Ti      4.53393854     4.57860569     9.62325602    -0.52928158     0.30134651     1.04198802
Ti      0.97829111     0.46723892     6.94960703    -0.53072680    -0.30108838    -1.04160956
Ti      6.13322106     4.57860757     4.09899789     0.53072680     0.30108838     1.04160956
O       2.25083952     1.77672829     5.63801851     0.89472649     1.11247278    -1.10718274
O       4.86067265     3.26911808     5.41058647    -0.89472649    -1.11247278     1.10718274
O       1.30496395     1.77674862     0.11375158    -0.89389525     1.11340687    -1.10911235
O       5.80654834     3.26909775    10.93485303     0.89389525    -1.11340687     1.10911235
O       4.86065872     0.74619487     0.11371571    -0.89463856    -1.11298932    -1.10747379
O       2.25085345     4.29965144    10.93488890     0.89463856     1.11298932     1.10747379
O       5.80653435     0.74617459     5.63805431     0.89401969    -1.11312122    -1.10872617
O       1.30497776     4.29967183     5.41055060    -0.89401969     1.11312122     1.10872617
O       0.25839383     3.06916976     2.98450383    -1.68696594     0.47804359     0.37898203
O       6.85311834     1.97667661     8.06410115     1.68696594    -0.47804359    -0.37898203
O       3.81414381     1.97662956     2.53983380    -1.68705850    -0.47818731    -0.37965618
O       3.29736836     3.06921681     8.50877099     1.68705850     0.47818731     0.37965618
O       0.25837983     0.54624654     2.53979848    -1.68753262     0.47811635    -0.37970143
O       6.85313234     4.49959976     8.50880626     1.68753262    -0.47811635     0.37970143
O       3.29735443     0.54629359     8.06413635     1.68705516     0.47812329    -0.37947826
O       3.81415775     4.49955277     2.98446857    -1.68705516    -0.47812329     0.37947826
