# total energy = -4932.80889547 eV

CRYSTAL
PRIMVEC
        5.35102943     0.00000000     0.00000000
       -0.00000699     2.29329848     0.00000000
       -2.67554541    -1.14673220     5.80706085
PRIMCOORD
6 1
Ti     -0.00022865     1.72004507     1.45176516    -0.03155208    -0.02646669    58.32033381
Ti      2.67570541    -0.57347874     4.35529559     0.03155208     0.02646669   -58.32033381
O       0.00005685     0.57331057     0.94592275     0.03066864     0.02567582   -51.34269226
O       2.67541975     0.57325571     4.86113804    -0.03066864    -0.02567582    51.34269226
O      -0.00002237    -0.57335207     3.84945318    -0.00140459     0.00028976    -0.98836945
O       2.67549892     1.71991830     1.95760762     0.00140459    -0.00028976     0.98836945
