# total energy = -18983.62160011 eV

CRYSTAL
PRIMVEC
        7.60600008     0.00000000     0.00000000
        0.00000000     7.60600008     0.00000000
       -1.89786986    -1.89786986     4.85670466
PRIMCOORD
22 1
Ti      5.88230198     5.44890301     0.70467597    -4.45063573     5.33490657     4.72271485
Ti      5.50437602     2.29290100     2.21575701    -9.79873412     2.24481172    -4.74282629
Ti     -1.19809878     4.32626723     4.15858080    -5.75356742     9.58193322    -8.62236349
Ti      0.71474500     3.87200301     1.38362198     4.38088579    -6.87890910    20.61001327
Ti     -1.51558979     2.68122725     4.68990381   -38.49477418    64.69592640    36.47771292
Ti      5.47281822     1.41189322     4.27924380   -42.81685265   -34.40376084    -9.62861702
Ti     -0.52104978     1.99512820     4.05487582    74.84156211   -30.78185290   -40.14269817
Ti     -0.94715579    -0.10640675     4.01196081    12.16751908   -13.44145155    -8.69034039
O       4.20790801     5.38827199     1.49252798     0.71788518     2.62240870     1.54411026
O       5.11519103     6.69738899     2.18715001    -1.29903776    -3.77205682    -2.74212599
O      -0.03789200     5.56422602     1.60816199    -0.21529295     3.53865225    -0.82494338
O      -0.67020177     5.76651424     3.97172683     3.59465604     8.96155871    -2.35767008
O       6.28290403     3.97297098     2.02751400     4.35353490     3.89588171    12.32530851
O       6.22332301     0.91912701     2.19962499     9.17564966    -7.01935412     0.56675079
O       1.90323900     6.19814999     0.28574899     7.74638960    -1.19483193     5.82288748
O       2.27855400     4.11191499     0.69460399     6.07610678     1.42101531     2.18937871
O       4.26114324     1.10497824     2.62941481    -4.03300692     2.17402177     1.37468195
O       1.15429502     2.40183103     2.11216601    -1.04091921    -0.65103981     2.01423253
O       4.52908520     4.25436823     4.11542481    -2.50281636     1.29096989    -2.49912477
O       5.80871798     3.57335500     0.99015202    -4.75292378    -3.42686835   -14.32365419
O       0.77474724     0.36646620     4.24844383    -0.71393236     0.13245171    -0.08031512
O       7.24321902     1.69579798     0.04189300    -7.18169543    -4.32441303     7.00688786
