# total energy = -19960.16424733 eV

CRYSTAL
PRIMVEC
        7.60600008     0.00000000     0.00000000
        0.00000000     7.60600008     0.00000000
       -1.89786986    -1.89786986     4.85670466
PRIMCOORD
24 1
Ti      3.89316602     6.74054101     1.13743602    -0.03889978    -2.46969617     0.15531706
Ti      3.82056698     2.73261501     1.14058002    -1.11352668     2.12443700     1.97533327
Ti     -0.01522797     6.61326102     1.20343897    -0.15887778     0.88811824    -1.09244440
Ti     -0.13268701     2.87648497     1.33881902     1.69757921    -1.05388992     0.23061467
Ti      5.66169624     2.77077325     3.72816380     0.03665855     0.96488318    -0.21395109
Ti      5.68676522    -0.90681576     3.62366081     0.55122904    -0.97164467     1.11405170
Ti      2.01430225     2.82900724     3.70826483    -1.11626748    -0.28523058    -1.79884368
Ti      2.02435323    -0.94151878     3.61634282    -0.28562061    -0.26477899    -2.44487190
O       3.94067201     4.79913399     0.68255499    -0.36660268    -1.48574619     2.77132988
O       3.93714901     0.93093100     0.66918300    -0.09152179     0.05891402     0.34935237
O      -0.31463800     4.66688698     0.84408899     0.95928100     1.93639750    -0.29537127
O      -0.06790699     1.05193701     0.75998701     0.16368857    -1.51779038     0.08686655
O       5.41516325     4.78134522     3.97804484     0.76289030     0.00775548     1.13644627
O       5.68165823     0.95382421     4.08575379     0.22452964     0.24232682    -0.04630430
O       2.10073922     4.62685922     4.02292881    -0.35728294     3.98233380    -0.51797695
O       1.79496521     0.87038222     4.07308280    -0.08926796    -0.13131554    -0.40061710
O       3.73855424     2.73107320     3.11880180     1.32899935    -0.45452107     0.60835100
O       3.89802525    -0.69915475     3.07702183    -2.36365329    -0.39263048     0.76239536
O      -0.12130780     2.96227122     3.31886382     0.59688002    -0.20288300     0.20516254
O      -0.10159177    -1.01208377     3.07656282     2.21687333    -0.22528297     1.45385165
O       5.75013202     6.77787499     1.60186901    -1.18098422     0.00573536    -0.65892076
O       5.66640798     2.83711101     1.76952898    -1.49817928    -0.47556479    -1.29015896
O       1.93202402     6.75312500     1.58900598     0.00800796    -0.47189968     0.10916137
O       1.84452700     2.77687000     1.79230101     0.11406729     0.19197329    -2.19877301
