# total energy = -19073.99703226 eV

CRYSTAL
PRIMVEC
        5.17600016     0.00000000     0.00000000
        0.00000000     5.50899976     0.00000000
        0.00000000     0.00000000     9.26300011
PRIMCOORD
22 1
Ti      1.85866497     3.46114201     3.16395199     1.03882942     0.60734981    -0.23939473
Ti      3.37494999     2.17694599     5.81924897     0.59093229     0.40561121    -0.49669515
Ti      4.54811299     2.24696497     1.22894902    -0.72872932     0.86440957    -1.44223617
Ti      0.80718697     3.07470202     7.87749998    -0.41767355     0.55691246     1.82499078
Ti      1.87543899     0.63958701     1.29492801     0.64887572    -0.17792118    -2.52824484
Ti      3.34052701     4.97843998     8.14468199    -1.06461965    -0.63156653     2.05001304
Ti      0.79929599     0.12989598     6.28100402     0.93822032    -0.56113319    -0.09856610
Ti      4.48926499     5.18173401     3.48037999    -3.05815582    -0.83159689    -0.34470099
O       3.37135302     3.47382301     4.28094097    -0.90765632     0.08467546     2.24925742
O       1.07541300     2.04694502     0.25052098    -0.84257242    -0.21702921    -1.04322549
O       4.39773002     3.61674399     9.03382498    -0.50027284    -0.48511181    -0.56149597
O       3.50494699     0.74414402     0.29785900     1.59694053     0.66641116    -1.36309244
O       1.72074498     4.67296199     9.11798099    -0.30958613    -0.05422690    -0.70572309
O       3.35299702     0.91283801     4.50803199     1.12052728    -1.00352019     0.26345461
O       0.71975499     4.82617801     4.54027000     1.11302069     0.03854496     1.17732452
O       5.10445899     3.43689702     2.54474503     1.66173981     0.40269841     0.07078404
O       0.06861598     1.83582701     6.36473399    -1.12261296     0.75291673     0.27976672
O       2.79714802     2.16564303     2.18693199    -0.72076687    -0.44908473    -0.07255502
O       2.29644098     3.50830102     6.86335898     0.40907295     0.87107388    -0.47577870
O       0.17273901     0.71737200     2.14497902    -0.31973737    -0.44226745     1.41095509
O       2.33120999     0.87185598     7.10493098     0.76990324     0.04059619    -1.31068691
O       2.69874799     4.82073601     2.29896701     0.10432126    -0.43774205     1.35584964
