# total energy = -4989.69509196 eV

CRYSTAL
PRIMVEC
        3.63200654     0.00000000     0.00000000
       -0.00000809     3.63200654     0.00000000
       -1.81603176    -1.81603580     4.63524812
PRIMCOORD
6 1
Ti     -0.00015994     2.72414247     1.15881190     0.00225383    -0.00191599    -0.00131306
Ti      1.81612654    -0.90817183     3.47643591    -0.00225383     0.00191599     0.00131306
O       0.00003628     0.90799547     0.75504399     0.00013781     0.00117911     0.88580039
O       1.81593022     0.90797508     3.88020387    -0.00013781    -0.00117911    -0.88580039
O      -0.00002051    -0.90797970     3.07266800     0.00116600     0.00010207     0.88497584
O       1.81598696     2.72395019     1.56257987    -0.00116600    -0.00010207    -0.88497584
