# total energy = -19958.26636143 eV

CRYSTAL
PRIMVEC
        5.80719409     0.00000000     0.00000000
        0.00002700     5.05686344     0.00000000
        0.00000000     0.00000000     9.54416966
PRIMCOORD
24 1
Ti      2.10484454     2.99669249     3.54081899    -0.01307535     0.36244675    -0.73449220
Ti      3.70237661     2.06017073     6.00335105     0.01307535    -0.36244675     0.73449220
Ti      5.00834097     2.06017237     1.23122789    -0.01146430    -0.36265938     0.73739600
Ti      0.79888018     2.99669101     8.31294226     0.01146430     0.36265938    -0.73739600
Ti      2.10483125     0.46826088     1.23126616    -0.01298459     0.35751640     0.73626395
Ti      3.70238990     4.58860251     8.31290399     0.01298459    -0.35751640    -0.73626395
Ti      0.79886689     0.46825903     6.00331278     0.01126272     0.35758170     0.73584768
Ti      5.00835426     4.58860430     3.54085726    -0.01126272    -0.35758170    -0.73584768
O       1.83802312     1.78060751     4.87031687     0.67830252    -0.02415527     0.34871294
O       3.96919803     3.27625572     4.67385317    -0.67830252     0.02415527    -0.34871294
O       1.06562688     1.78062794     0.09826259    -0.67832154    -0.02409973     0.34790664
O       4.74159433     3.27623533     9.44590718     0.67832154     0.02409973    -0.34790664
O       3.96918475     0.74782394     0.09823161    -0.67817782     0.02394366     0.34820926
O       1.83803641     4.30903928     9.44593817     0.67817782    -0.02394366    -0.34820926
O       4.74158099     0.74780356     4.87034785     0.67809734     0.02426737     0.34848437
O       1.06564006     4.30905971     4.67382219    -0.67809734    -0.02426737    -0.34848437
O       0.21100512     3.07587102     2.57811843     0.08252344    -0.16859475     0.30040163
O       5.59621604     1.98099220     6.96605162    -0.08252344     0.16859475    -0.30040163
O       3.11460797     1.98094520     2.19399696     0.08340122     0.16868680    -0.30049034
O       2.69261318     3.07591802     7.35017292    -0.08340122    -0.16868680     0.30049034
O       0.21099178     0.54743925     2.19396646     0.08253476    -0.16877267    -0.30074616
O       5.59622938     4.50942397     7.35020342    -0.08253476     0.16877267     0.30074616
O       2.69259984     0.54748625     6.96608206    -0.08298521    -0.16874773    -0.30073922
O       3.11462131     4.50937697     2.57808793     0.08298521     0.16874773     0.30073922
