# total energy = -19901.99027765 eV

CRYSTAL
PRIMVEC
        6.72847826     0.00000000     0.00000000
        0.00003688     7.16113559     0.00000000
        0.00000000     0.00000000    12.04249657
PRIMCOORD
24 1
Ti      2.43877160     4.24368232     4.46768042     0.06085161    -0.90795251     0.61001656
Ti      4.28974353     2.91745333     7.57481649    -0.06085161     0.90795251    -0.61001656
Ti      5.80289294     2.91745579     1.55351991     0.06080918     0.90800393    -0.61044054
Ti      0.92562220     4.24368014    10.48897714    -0.06080918    -0.90800393     0.61044054
Ti      2.43875330     0.66311467     1.55356821     0.06085161    -0.90795251    -0.61001656
Ti      4.28976183     6.49802119    10.48892885    -0.06085161     0.90795251     0.61001656
Ti      0.92560390     0.66311200     7.57476820    -0.06080918    -0.90800393    -0.61044054
Ti      5.80291124     6.49802386     4.46772872     0.06080918     0.90800393     0.61044054
O       2.12961883     2.52155764     6.14519395     1.39067191     1.29558039    -0.01296942
O       4.59889630     4.63957808     5.89730297    -1.39067191    -1.29558039     0.01296942
O       1.23468560     2.52158649     0.12398426    -1.39043099     1.29641600    -0.01408965
O       5.49382960     4.63954924    11.91851232     1.39043099    -1.29641600     0.01408965
O       4.59887800     1.05901022     0.12394518    -1.39067191    -1.29558039    -0.01296942
O       2.12963714     6.10212544    11.91855139     1.39067191     1.29558039     0.01296942
O       5.49381130     1.05898138     6.14523302     1.39043099    -1.29641600    -0.01408965
O       1.23470377     6.10215435     5.89726389    -1.39043099     1.29641600     0.01408965
O       0.24448358     4.35580862     3.25297883     0.48941018    -0.28158218     0.32209507
O       6.48403155     2.80532703     8.78951808    -0.48941018     0.28158218    -0.32209507
O       3.60872810     2.80526029     2.76830791     0.49001825     0.28214217    -0.32256532
O       3.11978703     4.35587536     9.27418880    -0.49001825    -0.28214217     0.32256532
O       0.24446528     0.77524076     2.76826945     0.48941018    -0.28158218    -0.32209507
O       6.48404985     6.38589490     9.27422726    -0.48941018     0.28158218     0.32209507
O       3.11976873     0.77530750     8.78955647    -0.49001825    -0.28214217    -0.32256532
O       3.60874641     6.38582815     3.25294038     0.49001825     0.28214217     0.32256532
