# total energy = -4989.29940629 eV

CRYSTAL
PRIMVEC
        3.86492294     0.00000000     0.00000000
        1.13395462     3.69483101     0.00000000
       -2.49947366    -1.84744129     4.99021136
PRIMCOORD
6 1
Ti      0.85034769     2.77126491     1.24755255     0.00021520    -0.00021520    -0.00000000
Ti      1.64905596    -0.92387536     3.74265807    -0.00021520     0.00021520     0.00000000
O       0.28352908     0.92370263     0.81286451    -0.00032499    -0.00038875    -1.01022897
O       2.21587440     0.92368683     4.17734610     0.00032499     0.00038875     1.01022897
O      -0.28349932    -0.92368063     3.30797004    -0.00038875    -0.00032499    -1.01022897
O       2.78290278     2.77106999     1.68224063     0.00038875     0.00032499     1.01022897
