# total energy = -19945.35746234 eV

CRYSTAL
PRIMVEC
        5.59498841     0.00000000     0.00000000
        0.00002364     4.40134410     0.00000000
        0.00000000     0.00000000     8.90808345
PRIMCOORD
24 1
Ti      2.02792822     2.60823247     3.30483543    -0.48804570     1.96518564    -3.54989028
Ti      3.56708388     1.79311178     5.60324808     0.48804570    -1.96518564     3.54989028
Ti      4.82532579     1.79311331     1.14917073    -0.48563169    -1.96517715     3.55697573
Ti      0.76968630     2.60823114     7.75891287     0.48563169     1.96517715    -3.55697573
Ti      2.02791650     0.40756052     1.14920645    -0.48850413     1.96504602     3.55486280
Ti      3.56709560     3.99378388     7.75887715     0.48850413    -1.96504602    -3.55486280
Ti      0.76967458     0.40755884     5.60321236     0.48532624     1.96536510     3.55220222
Ti      4.82533751     3.99378556     3.30487114    -0.48532624    -1.96536510    -3.55220222
O       1.77085751     1.54978811     4.54572680     0.89939176    -2.13720587     2.50990618
O       3.82415463     2.85155614     4.36235670    -0.89939176     2.13720587    -2.50990618
O       1.02668610     1.54980586     0.09171373    -0.90010678    -2.13732414     2.51033453
O       4.56832609     2.85153844     8.81636953     0.90010678     2.13732414    -2.51033453
O       3.82414291     0.65088404     0.09168483    -0.90005305     2.13637000     2.50971360
O       1.77086923     3.75046021     8.81639843     0.90005305    -2.13637000    -2.50971360
O       4.56831437     0.65086634     4.54575570     0.89990881     2.13727349     2.50975988
O       1.02669772     3.75047796     4.36232780    -0.89990881    -2.13727349    -2.50975988
O       0.20329326     2.67714698     2.40629558     1.74185773    -0.68487169     0.95508187
O       5.39171889     1.72419728     6.50178792    -1.74185773     0.68487169    -0.95508187
O       3.00079349     1.72415623     2.04777450     1.74317054     0.68528384    -0.95475380
O       2.59421865     2.67718808     6.86030885    -1.74317054    -0.68528384     0.95475380
O       0.20328154     0.47647492     2.04774605     1.74201277    -0.68518511    -0.95552359
O       5.39173061     3.92486938     6.86033731    -1.74201277     0.68518511     0.95552359
O       2.59420693     0.47651598     6.50181633    -1.74354155    -0.68513728    -0.95571488
O       3.00080521     3.92482828     2.40626713     1.74354155     0.68513728     0.95571488
