# total energy = -19960.74424749 eV

CRYSTAL
PRIMVEC
        5.54323109     0.00000000     0.00000000
        0.00002759     5.33780029     0.00000000
        0.00000000     0.00000000     9.47240901
PRIMCOORD
24 1
Ti      2.00917104     3.16317546     3.51419626    -0.05184811     0.13171226    -0.32121755
Ti      3.53408765     2.17462472     5.95821307     0.05184811    -0.13171226     0.32121755
Ti      4.78068998     2.17462656     1.22197056    -0.05029645    -0.13117156     0.32328343
Ti      0.76256876     3.16317390     8.25043893     0.05029645     0.13117156    -0.32328343
Ti      2.00915730     0.49427542     1.22200856    -0.05164705     0.10988668     0.32281652
Ti      3.53410144     4.84352493     8.25040093     0.05164705    -0.10988668    -0.32281652
Ti      0.76255497     0.49427348     5.95817512     0.04988456     0.10993501     0.32128337
Ti      4.78070372     4.84352692     3.51423426    -0.04988456    -0.10993501    -0.32128337
O       1.75447737     1.87953016     4.83369793     0.49627812     0.14712141     0.16538319
O       3.78878136     3.45827003     4.63871140    -0.49627812    -0.14712141    -0.16538319
O       1.01719009     1.87955175     0.09752376    -0.49585851     0.14626857     0.16523303
O       4.52606870     3.45824850     9.37488535     0.49585851    -0.14626857    -0.16523303
O       3.78876757     0.78936983     0.09749305    -0.49543248    -0.14668072     0.16545209
O       1.75449116     4.54843036     9.37491606     0.49543248     0.14668072    -0.16545209
O       4.52605491     0.78934829     4.83372870     0.49564074    -0.14696817     0.16549529
O       1.01720372     4.54845195     4.63868068    -0.49564074     0.14696817    -0.16549529
O       0.20141528     3.24675274     2.55873405     0.17088252    -0.13622584     0.19862242
O       5.34184346     2.09104750     6.91367528    -0.17088252     0.13622584    -0.19862242
O       2.97303574     2.09099782     2.17750073     0.17111161     0.13612094    -0.19837842
O       2.57022295     3.24680242     7.29490849    -0.17111161    -0.13612094     0.19837842
O       0.20140149     0.57785254     2.17747045     0.17099179    -0.13585843    -0.19843524
O       5.34185720     4.75994770     7.29493872    -0.17099179     0.13585843     0.19843524
O       2.57020921     0.57790222     6.91370551    -0.17050971    -0.13622481    -0.19864170
O       2.97304953     4.75989797     2.55870382     0.17050971     0.13622481     0.19864170
