# total energy = -19961.10299954 eV

CRYSTAL
PRIMVEC
        7.60600008     0.00000000     0.00000000
        0.00000000     7.60600008     0.00000000
       -1.89786986    -1.89786986     4.85670466
PRIMCOORD
24 1
Ti      3.79727397     6.74149099     1.26710302     0.95721435    -0.54107318    -0.43017400
Ti      3.79163601     2.90149802     1.22200299     1.23437320     0.55725956    -0.55361399
Ti      0.04471098     6.51860598     1.26342201    -1.16374806     0.50967588    -1.09295913
Ti      0.07320098     2.78110300     1.19890699    -1.27591093    -0.31994768    -0.58557385
Ti      5.69777824     2.88517925     3.63332581    -0.34744410    -0.88011131    -1.56372238
Ti      5.64474420    -1.06272677     3.63490879    -1.15742288     1.06060410    -0.21733569
Ti      1.92833725     3.00626421     3.61757379    -0.12464327    -0.79381425     1.52017174
Ti      1.82196823    -0.90711077     3.62705480     1.86855197     0.45281180     1.18937939
O       3.89801498     4.85680700     0.75154002    -1.01379689    -0.86885733     0.16869348
O       3.94210301     1.02118599     0.79691601    -0.95735293    -0.90177980    -0.44643238
O       0.09012598     4.69723699     0.65526601     0.14408185     0.50356257     1.46376428
O      -0.01296400     0.90054802     0.75166099     0.46643685    -1.01778930     0.72637471
O       5.32335824     4.72463123     4.04948382     1.10771676    -0.04987453     0.51245782
O       5.67239721     0.89882322     4.06058183     0.41549968     0.16046184    -0.20543276
O       2.10933121     4.83591223     4.03115979    -0.91409256     0.81509245     0.11028468
O       1.95447924     1.04332920     4.12354382    -0.99847209    -1.08328715    -0.64250452
O       3.72576525     2.84530220     3.24234881     1.62660568     0.00439839    -0.53135826
O       3.78211024    -0.82967076     3.19435482    -0.50735700     0.34142103     0.07372770
O      -0.01271878     3.08443020     3.16526880    -0.33682595    -0.10546335     0.31649880
O      -0.02277780    -1.05271479     3.18236980    -0.26686775     0.11537778     0.25689521
O       5.59405998     6.42882698     1.62773001     2.24933275     0.54743229     0.60563823
O       5.69348900     2.79508000     1.59634102     0.25849547     0.27767796     0.60387085
O       1.90604301     6.40610898     1.64227799    -0.90691018     0.95103804    -0.23328836
O       1.91036099     2.70390101     1.68569498    -0.35746446     0.26518394    -1.04536234
