# total energy = -39040.25613163 eV

CRYSTAL
PRIMVEC
        7.60629642    -0.00000847    -0.00005503
       -0.00000847     7.60629642    -0.00005503
       -3.80314186    -3.80314186     9.70738094
PRIMCOORD
46 1
Ti      1.91110190     4.75550163     6.06130068    -0.04145134    -0.01989829     0.05416134
Ti      3.80302897     6.64494510     1.22317080     0.00004782     0.02289337    -0.12175926
Ti      1.81635326     0.95681019     6.03813146     0.11238913    -0.00074022    -0.10116138
Ti      3.80295992     2.86214119     1.21664860    -0.00014887    -0.03865089    -0.03676088
Ti     -1.91143871     4.75550088     6.06130889     0.04135878    -0.02001862     0.05414334
Ti     -0.00011242     6.67276558     1.30016861     0.00005039     0.07281213     0.25244540
Ti     -1.81656519     0.95681065     6.03819806    -0.11113778    -0.00089500    -0.10058776
Ti     -0.00017998     2.84439320     1.17678349     0.00002597    -0.17744449     0.15570144
Ti      3.80321295     0.87080045     8.56601481    -0.00006582     0.29727517     0.10198850
Ti      5.71138089     2.85122544     3.63069570    -0.02075524     0.04481434    -0.04195142
Ti      3.80329209    -2.77833193     8.48334369    -0.00045843    -0.28397922    -0.14371469
Ti      5.69649258    -0.95057713     3.63180512    -0.13528456    -0.04406410     0.12652095
Ti      0.00015275     0.96473185     8.46449002     0.00003471    -0.01937378     0.17107278
Ti      1.89523710     2.85124751     3.63071143     0.02075807     0.04516864    -0.04203472
Ti      0.00012721    -2.85821787     8.50197969    -0.00004679     0.01793011     0.01267837
Ti      1.91011380    -0.95056306     3.63181370     0.13481276    -0.04409906     0.12655180
O       1.94777209     2.83254397     5.66571338     0.11837235     0.02760440    -0.06050091
O       3.80319478     4.75237861     0.78524692    -0.00008433     0.02174049    -0.00312158
O       1.95708933    -0.92924161     5.67676002     0.18073525    -0.03093758     0.03973101
O       3.80319426     0.95189112     0.78259911    -0.00010336    -0.02833177    -0.06401432
O      -1.94768741     2.83254761     5.66572983    -0.11880095     0.02778669    -0.06053767
O       0.00006795     4.83927491     0.76402124     0.00000797    -0.11846182     0.12067246
O      -1.95701163    -0.92923254     5.67677874    -0.18107052    -0.03118029     0.03974618
O       0.00007899     0.87092478     0.74465518     0.00005939     0.13783303     0.06120873
O       5.70937308     4.75479151     4.07405742     0.02619544    -0.00132926     0.05984142
O       3.80310084    -0.95373623     8.92209888    -0.00001183    -0.02400948    -0.05549805
O       5.67936793     0.95090207     4.05813688     0.00897778     0.00268886    -0.04630301
O      -0.00002949     2.83480440     8.89576507     0.00013627     0.01311315    -0.02147283
O       1.89680839     4.75480203     4.07408499    -0.02620392    -0.00136731     0.05982548
O      -0.00003850    -0.93664171     8.89239622     0.00004911     0.00615677    -0.12391873
O       1.92682974     0.95090349     4.05818111    -0.00868776     0.00275468    -0.04641074
O       2.00852177     0.99688029     8.04192886    -0.13318062     0.21152628    -0.10343578
O       3.80315084     2.85565605     3.20813670    -0.00011570     0.04597160    -0.14520876
O       1.92090671    -2.90174718     8.09337748    -0.05265621    -0.14116159    -0.01046542
O       3.80315344    -0.95343437     3.21601855     0.00003960    -0.04487219     0.00122076
O      -2.00849201     0.99688620     8.04190108     0.13208045     0.21151779    -0.10290587
O      -0.00000219     2.84841003     3.21983254     0.00012573    -0.03923891     0.05291564
O      -1.92085925    -2.90174396     8.09340703     0.05250966    -0.14114410    -0.01049062
O       0.00000412    -0.94650313     3.26616546    -0.00003548     0.05037641     0.04987762
O       3.80314371     4.72932879     6.47848295    -0.00012881    -0.01301441    -0.00439273
O       5.69868279     6.65592891     1.63364358    -0.01904520    -0.00295214     0.14210595
O       5.72239808     2.85275289     1.62087181    -0.03495287     0.01219835    -0.06815688
O      -0.00000920     4.75854931     6.49085181     0.00012547     0.03356551    -0.01143627
O       1.90757427     6.65593259     1.63365968     0.01932879    -0.00294623     0.14203988
O      -0.00008901     0.94664866     6.51602465     0.00122333    -0.04786213    -0.23018015
O       1.88389988     2.85276269     1.62090809     0.03498219     0.01224540    -0.06802859
