# total energy = -19958.76493680 eV

CRYSTAL
PRIMVEC
        7.60600008     0.00000000     0.00000000
        0.00000000     7.60600008     0.00000000
       -1.89786986    -1.89786986     4.85670466
PRIMCOORD
24 1
Ti      3.89209000     6.63819501     1.13030599    -0.49168741    -0.75167129    -0.04708077
Ti      3.82079199     2.67080701     1.23348598     0.21472756     0.93446059     0.48706816
Ti     -0.08002800     6.80165500     1.21122301     0.06174172    -1.12281788    -0.65264573
Ti      0.00975898     2.99254699     1.21166202    -0.62389898     0.75599048     0.76532436
Ti      5.65806121     2.92926220     3.61830279    -2.43936511     2.08959519     1.28551632
Ti      5.76319624    -0.72433978     3.72623383    -1.96959611    -2.19266561    -1.07963259
Ti      1.70666521     2.61669821     3.62025281     3.16605272     0.56810448     0.97880340
Ti      1.99949825    -0.98444278     3.54030481     1.16867121    -2.12116012    -0.48957473
O       4.03059500     4.54935502     0.68988600    -1.62867644     0.21974147    -0.39782128
O       4.12520803     0.88716301     0.68319402    -1.21610448     0.57970170     0.85340319
O      -0.08294001     4.87918702     0.97581301     0.66978445    -2.00012026    -0.37332200
O      -0.23518600     1.01706799     0.91486100     0.82153461     0.77936928    -1.44997982
O       5.27372623     4.76438821     4.15508680     1.96805987     0.51134324    -0.31218629
O       5.53499623     1.11686521     4.19064979     0.68680464    -1.53581408    -0.97727487
O       2.39225821     4.71085420     4.17763981    -2.35223502    -0.70659418    -1.50956876
O       2.04133125     0.77434925     3.96522181    -1.28607373     2.41667897     0.12797131
O       3.75137822     2.82606221     3.09886780    -0.63928730    -0.62782814     0.64770946
O       3.84229823    -0.88495677     3.24360381     0.60759535     0.43656371    -0.30751279
O      -0.11101377     2.86254322     3.11971182     1.75259158     0.23721495     2.46476351
O       0.01226622    -0.92685379     3.12625081    -0.89558987     0.16628410     2.17539988
O       5.63116599     6.66103700     1.70605100     1.78223307     0.03865835     1.24284653
O       5.65177797     2.86206003     1.80767801     0.82775771    -0.10545666    -2.29306106
O       1.94483498     6.57315002     1.55560702     0.08116667     0.40128765    -0.23928083
O       1.83908801     2.45985102     1.66259602    -0.26620672     1.02913430    -0.89986459
