# total energy = -19958.77444296 eV

CRYSTAL
PRIMVEC
        7.60600008     0.00000000     0.00000000
        0.00000000     7.60600008     0.00000000
       -1.89786986    -1.89786986     4.85670466
PRIMCOORD
24 1
Ti      3.88009498     6.62744699     1.15934798     0.10438760    -0.30693224    -0.61703311
Ti      3.78886498     2.70772400     1.24298301     0.27073238     0.07089562     0.16625428
Ti     -0.06512002     6.81915299     1.23685302    -0.36869247    -1.86189204    -1.05420077
Ti      0.03031699     2.96760602     1.21407501    -0.71060973     1.66963850     0.30721917
Ti      5.66975323     2.93763125     3.58764183    -2.40160356     1.90717201     1.47741916
Ti      5.75352320    -0.72475979     3.72960480    -2.23215160    -2.22136608    -1.58420920
Ti      1.74006021     2.62071122     3.60867282     3.50069709     0.68825398     1.35022381
Ti      1.97549720    -0.99100077     3.52752883     1.35645257    -2.47444988     0.43749419
O       4.04674803     4.52552601     0.71938001    -1.87217080     0.45068473    -0.81912755
O       4.08851398     0.87037899     0.71713900    -1.19806021     0.57553214     0.41639237
O      -0.07693697     4.87116300     1.00832598     0.77127210    -2.17127968    -0.65464219
O      -0.21407601     1.03660902     0.94778699     0.73680722     0.61091491    -1.61300402
O       5.26170724     4.74679920     4.15551480     2.10111811     0.51784428    -0.17733265
O       5.53527622     1.09810725     4.12481982     0.83170410    -1.07082630    -0.03881596
O       2.37546921     4.66544423     4.16430380    -2.49420599    -0.37796439    -1.03391450
O       2.04767725     0.73865323     3.92519284    -1.31680460     3.07553880     0.48136288
O       3.66953424     2.78665221     3.12260383     0.31951831    -0.49031007     0.43777418
O       3.86947322    -0.87864278     3.22921479     0.68765954     0.20005118    -0.11815535
O      -0.07818679     2.90109124     3.12985779     1.06703263     0.11966973     1.82454290
O       0.03388825    -0.92533675     3.12135582    -1.34949825     0.12098330     2.31368748
O       5.64613202     6.63514901     1.65332901     1.90295206     0.17210122     1.64984280
O       5.60184301     2.89035402     1.79489700     1.57461769    -0.24695146    -1.53945193
O       1.95058603     6.57415498     1.60555399    -0.02870098     0.26731564    -0.85022479
O       1.87528998     2.52382400     1.60875297    -1.25245321     0.77537558    -0.76210123
