# total energy = -19519.42375590 eV

CRYSTAL
PRIMVEC
        7.60600008     0.00000000     0.00000000
        0.00000000     7.60600008     0.00000000
       -1.89786986    -1.89786986     4.85670466
PRIMCOORD
23 1
Ti      3.81187900     6.59649700     1.20448002    -0.33002975     0.34157401     0.50101332
Ti      3.78377900     2.84681501     1.21787699     0.15642572     0.04939554     0.95450569
Ti     -0.00301001     6.67730999     1.23455798     0.25030907     0.16699038    -0.43986166
Ti     -0.02322099     2.89305399     1.18765499     0.06201426    -0.48098262    -0.85696340
Ti      5.69601121     2.86734920     3.66284581    -0.74014811    -0.11630827    -0.49666430
Ti      5.73494421    -0.94371777     3.62678481    -1.09199677    -0.04715251     0.59268578
Ti      1.92658625     2.85598623     3.64216482     0.93377205    -0.19031056    -0.57009786
Ti      1.89583523    -0.97798877     3.69333779     0.62125023     0.07997882    -1.09431282
O       3.73010799     4.77124799     0.73252700    -0.03161404    -0.79725182     0.82857841
O       3.76567998     0.92857701     0.70422501     0.15348077     0.22819552     1.16348966
O       0.01034600     4.76674299     0.78745798     0.23081547     0.30557830    -0.07793171
O      -0.02374402     0.97527103     0.84140802     0.12398738    -1.22069647    -0.54774699
O       5.71606920     4.69735621     3.94686079     0.48243298     0.72584917     1.01878586
O       5.72119624     0.91959925     4.00840681     0.34615906     0.62637701    -0.02984075
O       1.88379222     4.70900521     4.03252379    -0.32165567     0.41785018    -0.22520070
O       1.85963522     0.95198823     4.13100982    -0.23544912     0.13598724    -1.04065953
O       3.83583824     2.93560524     3.25434679    -0.83189925    -0.56112548    -0.82369228
O       3.83151523    -0.98444876     3.25757181    -0.84106626    -0.00123387    -0.39017508
O      -0.06774379    -1.06425377     3.24146482     1.83151033     0.37012844    -0.73490537
O       5.69014698     6.63826899     1.57626700     0.36737170     0.09377588     0.22711720
O       5.76803901     2.85367601     1.59586201    -0.85690632     0.04191774     0.66702437
O       1.95529798     6.68921299     1.59182698    -1.17999538    -0.01503659     0.61200017
O       1.81113401     2.86978802     1.62424400     0.90123216    -0.15350057     0.76285199
