# total energy = -4919.48677187 eV

CRYSTAL
PRIMVEC
        5.68000207     0.00000000     0.00000000
       -0.00000737     2.15448324     0.00000000
       -2.84003509    -1.07734389     6.26868065
PRIMCOORD
6 1
Ti     -0.00024270     1.61592341     1.56716989    -0.04076717    -0.02663175    73.94102493
Ti      2.84020237    -0.53878432     4.70151027     0.04076717     0.02663175   -73.94102493
O       0.00006030     0.53860367     1.02111677     0.03920214     0.02741723   -68.85271578
O       2.83989920     0.53853536     5.24756344    -0.03920214    -0.02741723    68.85271578
O      -0.00002462    -0.53866301     4.15545709    -0.00134957     0.00007379    -0.80680913
O       2.83998402     1.61580198     2.11322312     0.00134957    -0.00007379     0.80680913
