# total energy = -4983.11530618 eV

CRYSTAL
PRIMVEC
        4.48771489     0.00000000     0.00000000
       -0.00000999     4.48771489     0.00000000
       -2.24389264    -2.24389764     5.72732228
PRIMCOORD
6 1
Ti     -0.00019763     3.36595614     1.43183041    -0.00223995     0.00223995     0.00000000
Ti      2.24400976    -1.12213901     4.29549149     0.00223995    -0.00223995     0.00000000
O       0.00004483     1.12192110     0.93293394    -0.00036227    -0.00257573    -1.29171217
O       2.24376718     1.12189591     4.79438803     0.00036227     0.00257573     1.29171217
O      -0.00002535    -1.12190162     3.79659501    -0.00257573    -0.00036227    -1.29171217
O       2.24383729     3.36571856     1.93072695     0.00257573     0.00036227     1.29171217
