# total energy = -19516.61014680 eV

CRYSTAL
PRIMVEC
        5.17600016     0.00000000     0.00000000
        0.00000000     5.50899976     0.00000000
        0.00000000     0.00000000     9.26300011
PRIMCOORD
23 1
Ti      1.88337798     3.20556798     3.42717201    -0.99418271    -1.18236054     2.92948055
Ti      3.45291098     2.28869399     5.90797702    -0.18778573     0.03442811    -3.48762714
Ti      4.30268497     2.11554502     1.45868402     0.33989971     0.37339682    -0.70612906
Ti      0.77390702     3.48878200     7.77853198    -0.07801964     0.79643344     1.25712310
Ti      2.06442999     0.10943301     1.49620602    -2.16939172     0.16388655    -1.65223136
Ti      3.21585402     5.15766898     8.01934398    -0.62310323     0.19678999    -0.51754089
Ti      0.77956599     0.55135401     5.99951802     0.98647454     1.16697736    -4.00237478
Ti      4.47038601     4.99526099     3.23117798     1.77736339    -0.90041789     3.47392881
O       1.75472202     1.82901798     4.77653298     0.74502910     0.74055409    -0.34291895
O       3.57387000     3.58095499     4.44745099    -0.07314663    -0.46442702     0.75269741
O       4.84049803     2.85726102     9.14288502    -0.07510915     0.48325059     0.22462528
O       3.39877101     0.60355698     0.30635299     2.09358760     0.19950560    -0.69294084
O       1.53877701     4.83153699     9.01760601     0.08233704    -0.93957837     0.25635065
O       4.45759002     0.79441602     4.87473500    -1.36601399     0.22727840    -1.28500955
O       0.99834802     4.66370800     4.30733300     0.40477663     0.04847174     0.20380859
O       0.20196298     3.37197099     2.40682302     0.28846348     0.22170117     0.09086719
O       5.09802399     2.09681199     6.82997302     0.46576631     0.05014604    -0.23277928
O       2.49803899     1.83610202     2.00691499     0.04450993     1.30231746     1.47935803
O       2.62633902     3.55503298     7.03621800    -0.84648846     0.26253544     0.98831674
O       0.20897802     0.67363100     2.03026499     0.34115775    -0.37373827    -0.11064207
O       4.96914700     4.94555199     6.99389399    -1.24192222    -2.09136514     1.92012832
O       2.49282999     0.98701802     6.96975599    -0.27117358    -1.10368167     0.62922760
O       2.98002401     4.23820499     2.26367099     0.35697132     0.78789609    -1.17571912
