# total energy = -4988.64222971 eV

CRYSTAL
PRIMVEC
        3.74511520     0.00000000     0.00000000
        1.27183287     3.52254582     0.00000000
       -2.50850820    -1.76129690     4.85679205
PRIMCOORD
6 1
Ti      0.95376668     2.64204448     1.21419806     0.00009487    -0.00009487     0.00000000
Ti      1.55467254    -0.88079601     3.64259409    -0.00009487     0.00009487     0.00000000
O       0.31799723     0.88063160     0.79113179    -0.00010362     0.00006402    -1.13467247
O       2.19044181     0.88061673     4.06566047     0.00010362    -0.00006402     1.13467247
O      -0.31796686    -0.88061032     3.21952781     0.00006402    -0.00010362    -1.13467247
O       2.82640584     2.64185862     1.63726444    -0.00006402     0.00010362     1.13467247
