# total energy = -19954.87584202 eV

CRYSTAL
PRIMVEC
        5.56567333     0.00000000     0.00000000
        0.29602349     5.91615812     0.00000000
        0.00000000     0.00000000     9.96444626
PRIMCOORD
24 1
Ti      2.19271205     3.50590968     3.69673849     0.11444807    -0.79910173     0.56060380
Ti      3.66898453     2.41024822     6.26770788    -0.11444807     0.79910173    -0.56060380
Ti      4.92063395     2.41025024     1.28544488    -0.09562348     0.24841597    -0.29477040
Ti      0.94106270     3.50590788     8.67900161     0.09562348    -0.24841597     0.29477040
Ti      2.04470043     0.54783084     1.28548481     0.11444807    -0.79910173    -0.56060380
Ti      3.81699615     5.36832723     8.67896168    -0.11444807     0.79910173     0.56060380
Ti      0.79305106     0.54782865     6.26766789     0.09562348    -0.24841597    -0.29477040
Ti      5.06864558     5.36832942     3.69677848    -0.09562348     0.24841597     0.29477040
O       1.86580556     2.08317976     5.08478066     0.99216902     0.99281771    -0.11441053
O       3.99589102     3.83297814     4.87966572    -0.99216902    -0.99281771     0.11441053
O       1.12553451     2.08320363     0.10258955    -0.78493752     0.61192252     0.21059708
O       4.73616212     3.83295432     9.86185654     0.78493752    -0.61192252    -0.21059708
O       3.84787939     0.87489913     0.10255724    -0.99216902    -0.99281771    -0.11441053
O       2.01381719     5.04125876     9.86188885     0.99216902     0.99281771     0.11441053
O       4.58815050     0.87487532     5.08481303     0.78493752    -0.61192252     0.21059708
O       1.27354603     5.04128270     4.87963335    -0.78493752     0.61192252    -0.21059708
O       0.38227204     3.59854261     2.69164557     0.24339357     0.04205375     0.34358873
O       5.47942460     2.31761529     7.27280086    -0.24339357    -0.04205375    -0.34358873
O       3.10102385     2.31756017     2.29060930     0.40331753     0.38504984    -0.10481183
O       2.76067278     3.59859773     7.67383690    -0.40331753    -0.38504984     0.10481183
O       0.23426041     0.64046360     2.29057750     0.24339357     0.04205375    -0.34358873
O       5.62743622     5.27569429     7.67386870    -0.24339357    -0.04205375     0.34358873
O       2.61266116     0.64051872     7.27283260    -0.40331753    -0.38504984    -0.10481183
O       3.24903548     5.27563917     2.69161372     0.40331753     0.38504984     0.10481183
