# total energy = -19960.53696005 eV

CRYSTAL
PRIMVEC
        7.60600008     0.00000000     0.00000000
        0.00000000     7.60600008     0.00000000
       -1.89786986    -1.89786986     4.85670466
PRIMCOORD
24 1
Ti      3.74535602     6.55706801     1.27189001     0.09219619    -0.81752960    -0.51404342
Ti      3.72294902     2.75813300     1.24848000     0.18548202     1.05113113    -0.38279009
Ti      0.06896503     6.74639302     1.19621602    -0.36187982    -0.36569354     0.29537718
Ti     -0.03042198     2.94999902     1.10492199     0.42616899     0.46619825     0.46402259
Ti      5.72418524     3.06737921     3.58893779     0.69990468    -1.03954830     0.17285353
Ti      5.71241825    -0.89662576     3.58129282     1.26047428     0.54078470     0.42990815
Ti      1.83548124     2.72937724     3.62972783    -0.51142398     0.06397678     0.15344735
Ti      1.89854721    -1.12460077     3.70506383    -0.95813712     0.26015511    -0.52346266
O       3.56442900     4.73478799     0.76103901     0.96072108    -0.97381391    -0.00011673
O       3.69448198     0.89487201     1.03265702     0.64029080    -0.75484994    -1.38662859
O       0.14031299     4.78110899     0.80406499    -0.40303908     1.16895737    -0.62897408
O       0.18120500     1.06982002     0.72532500    -0.96795539    -1.11536965     0.05305011
O      -1.44454779     4.82147924     4.12978181    -1.73308924     0.38516862    -0.14195889
O       5.75277923     1.06562021     4.00759081    -0.79210704    -0.84310901    -0.46630727
O       1.59563822     4.61552424     4.13401983     1.19793654     2.34079078    -0.03918748
O       1.98520120     0.83708025     4.01446779     0.04756980    -0.23830433     0.57746099
O       3.73141220     2.92127522     3.12748782     1.33512115     0.23663877     1.47045507
O       3.83262624     6.28414024     3.21889181    -0.25932362     0.48738184     0.57306620
O      -0.05436778     2.91449324     3.23706180     1.24585730    -1.12381444    -0.69031523
O      -0.01994077    -0.90040779     3.21332582     0.76138929     0.37994388     0.05715719
O       5.77213500     6.58822898     1.56920100    -1.01173435     0.40601359     0.05238830
O       5.79111802     3.19022998     1.63187702    -1.59100643    -0.84464190    -0.22554625
O       1.84942702     6.52629497     1.72796200     1.25171067     0.42554910     0.81666854
O       1.94078699     2.85210303     1.63397002    -1.51512646    -0.09601557    -0.11652527
