# total energy = -19075.53031946 eV

CRYSTAL
PRIMVEC
        7.60600008     0.00000000     0.00000000
        0.00000000     7.60600008     0.00000000
       -1.89786986    -1.89786986     4.85670466
PRIMCOORD
22 1
Ti      3.83399300     6.55167802     1.18555601     0.10460614     1.88920437    -1.40953944
Ti      3.67419502     2.88693099     1.29890498     1.06730928    -1.38608403     0.39479612
Ti     -0.03903402     6.65883498     1.11999301     0.31106992    -0.51957335    -0.96740775
Ti     -0.09684700     2.82111700     1.14207500    -0.36773345     0.71993358    -0.47472661
Ti      5.82478120     2.76548221     3.56723681    -2.57455505     1.73732025     0.66301756
Ti     -1.39690279    -0.92289375     3.75484883    -1.54904755    -1.64859941    -1.20342816
Ti      1.77809520     2.79431920     3.67486781     1.97908914     0.32532772    -0.81938568
Ti      1.56317922    -0.89431379     3.76279580     1.18119223    -0.25601846    -0.87131145
O       3.57500101     4.75498700     0.79141702    -0.18143716     0.19675683     0.30934188
O       4.02162100     1.03795001     0.71731902    -0.64773800    -1.09989006     1.45786977
O       0.18772801     4.77236302     0.71052799     0.01886239    -1.21936490    -0.23104456
O       7.21222802     0.94027500     0.63721699     1.11736251     0.90874364     1.14554490
O       5.61899423     4.74749422     4.05189279     0.81257406     0.78711961    -0.44421197
O       5.69598825     0.88775622     3.82945282     0.66965255     0.23497989     0.78429963
O       2.07168321     4.76481721     4.03005582    -0.78580141     0.29374453     0.89114032
O       2.06766522     0.96367024     4.10616579    -1.11941991     0.41784016    -0.69470282
O       3.83374323     2.87344025     3.20803479    -0.38569416    -0.15491185    -0.34093998
O      -0.02328676     3.10522120     3.18995883     0.84310978    -0.73022005    -0.37902805
O       5.76661902     6.40480397     1.78017301    -0.39006118     0.60573902     0.87835781
O       5.71728297     3.09834598     1.53792800     0.27288748    -0.51926456     0.51783322
O       1.94169098     6.88258298     1.73817698    -0.09206635    -0.65098659     0.97855606
O       1.83233603     2.64213301     1.67392200    -0.28416151     0.06820394    -0.18503079
