# total energy = -19944.64399368 eV

CRYSTAL
PRIMVEC
        6.64566633     0.00000000     0.00000000
        0.00002615     4.71533236     0.00000000
        0.00000000     0.00000000    10.32489711
PRIMCOORD
24 1
Ti      2.40875001     2.79430157     3.83046319     0.39354142     0.28597825     0.07943426
Ti      4.23694259     1.92103079     6.49443404    -0.39354142    -0.28597825    -0.07943426
Ti      5.73146861     1.92103243     1.33194415     0.39427316    -0.28625619    -0.07949982
Ti      0.91422398     2.79430015     8.99295313    -0.39427316     0.28625619     0.07949982
Ti      2.40873693     0.43663550     1.33198554     0.39386487     0.28797266    -0.08008192
Ti      4.23695566     4.27869702     8.99291174    -0.39386487    -0.28797266     0.08008192
Ti      0.91421091     0.43663375     6.49439259    -0.39472902     0.28817989    -0.07886553
Ti      5.73148169     4.27869878     3.83050458     0.39472902    -0.28817989     0.07886553
O       2.10340462     1.66034870     5.26871598     1.07718001     0.42066349    -0.23244375
O       4.54228798     3.05498371     5.05618124    -1.07718001    -0.42066349     0.23244375
O       1.21948596     1.66036771     0.10630061    -1.07739290     0.42087869    -0.23328759
O       5.42620675     3.05496471    10.21859628     1.07739290    -0.42087869     0.23328759
O       4.54227496     0.69731747     0.10626709    -1.07729828    -0.42064472    -0.23239259
O       2.10341764     4.01801488    10.21862980     1.07729828     0.42064472     0.23239259
O       5.42619367     0.69729853     5.26874945     1.07750757    -0.42098950    -0.23321868
O       1.21949887     4.01803394     5.05614772    -1.07750757     0.42098950     0.23321868
O       0.24146847     2.86813244     2.78901231    -1.09090122     0.29405821     0.66199220
O       6.40422413     1.84719998     7.53588492     1.09090122    -0.29405821    -0.66199220
O       3.56430907     1.84715601     2.37346914    -1.09024096    -0.29369362    -0.66181968
O       3.08138353     2.86817640     7.95142792     1.09024096     0.29369362     0.66181968
O       0.24145539     0.51046620     2.37343613    -1.09084543     0.29415976    -0.66180297
O       6.40423721     4.20486615     7.95146087     1.09084543    -0.29415976     0.66180297
O       3.08137051     0.51051017     7.53591781     1.09032349     0.29377050    -0.66202769
O       3.56432209     4.20482224     2.78897936    -1.09032349    -0.29377050     0.66202769
