# total energy = -4989.60609491 eV

CRYSTAL
PRIMVEC
        3.73692546     0.00000000     0.00000000
        0.91985026     3.62194525     0.00000000
       -2.32842189    -1.81099909     4.80743770
PRIMCOORD
6 1
Ti      0.68976635     2.71659764     1.20185935     0.00106547    -0.00106547     0.00000000
Ti      1.63858766    -0.90565134     3.60557805    -0.00106547     0.00106547     0.00000000
O       0.23000175     0.90548115     0.78309226    -0.00019180     0.00012984    -0.37613505
O       2.09835209     0.90546506     4.02434513     0.00019180    -0.00012984     0.37613505
O      -0.22997505    -0.90546039     3.18681096     0.00012984    -0.00019180    -0.37613505
O       2.55832888     2.71640654     1.62062643    -0.00012984     0.00019180     0.37613505
