# total energy = -19915.56481497 eV

CRYSTAL
PRIMVEC
        7.76362907     0.00000000     0.00000000
        0.00002930     4.95770925     0.00000000
        0.00000000     0.00000000    11.85722765
PRIMCOORD
24 1
Ti      2.81395927     2.93793389     4.39894691     0.53394788    -0.42327650     1.97692838
Ti      4.94969859     2.01977530     7.45828087    -0.53394788     0.42327650    -1.97692838
Ti      6.69564023     2.01977697     1.52961961     0.53355321     0.42325156    -1.97745289
Ti      1.06801769     2.93793241    10.32760823    -0.53355321    -0.42325156     1.97745289
Ti      2.81394487     0.45907933     1.52966717     0.53411500    -0.42212902    -1.97813680
Ti      4.94971299     4.49862999    10.32756073    -0.53411500     0.42212902     1.97813680
Ti      1.06800324     0.45907753     7.45823331    -0.53386123    -0.42221772    -1.97895107
Ti      6.69565462     4.49863178     4.39899441     0.53386123     0.42221772     1.97895107
O       2.45724779     1.74569366     6.05065253     0.84554461     1.35126768    -1.74674077
O       5.30641013     3.21201547     5.80657524    -0.84554461    -1.35126768     1.74674077
O       1.42463250     1.74571368     0.12207681    -0.84501522     1.35169680    -1.74765377
O       6.33902549     3.21199551    11.73515059     0.84501522    -1.35169680     1.74765377
O       5.30639574     0.73316078     0.12203833    -0.84504093    -1.35071335    -1.74661016
O       2.45726219     4.22454835    11.73518907     0.84504093     1.35071335     1.74661016
O       6.33901104     0.73314082     6.05069095     0.84460899    -1.35114221    -1.74746325
O       1.42464676     4.22456837     5.80653676    -0.84460899     1.35114221     1.74746325
O       0.28208831     3.01555981     3.20293300    -2.14429209     0.71656183     0.36227037
O       7.48156961     1.94214932     8.65429471     2.14429209    -0.71656183    -0.36227037
O       4.16391179     1.94210323     2.72571854    -2.14527348    -0.71667110    -0.36290363
O       3.59974607     3.01560596     9.13150898     2.14527348     0.71667110     0.36290363
O       0.28207386     0.53670512     2.72568070    -2.14395142     0.71691202    -0.36287484
O       7.48158401     4.42100401     9.13154683     2.14395142    -0.71691202     0.36287484
O       3.59973168     0.53675127     8.65433250     2.14526011     0.71681689    -0.36277019
O       4.16392618     4.42095785     3.20289515    -2.14526011    -0.71681689     0.36277019
