# total energy = -19932.67259793 eV

CRYSTAL
PRIMVEC
        4.76263049     0.00000000     0.00000000
        1.48722545     4.84579144     0.00000000
        0.00000000     0.00000000     8.62378292
PRIMCOORD
24 1
Ti      2.60755288     2.87161154     3.19936196     3.72923122    -2.05690386     0.85639904
Ti      3.64230297     1.97418001     5.42442101    -3.72923122     2.05690386    -0.85639904
Ti      4.71335865     1.97418167     1.11249507    -6.88468097     0.90413082     2.70600018
Ti      1.53649729     2.87161006     7.51128799     6.88468097    -0.90413082    -2.70600018
Ti      1.86394027     0.44871590     1.11252965     3.72923174    -2.05710004    -0.86216217
Ti      4.38591561     4.39707579     7.51125341    -3.72923174     2.05710004     0.86216217
Ti      0.79288457     0.44871409     5.42438644     6.88465757    -0.90378192     2.71471442
Ti      5.45697131     4.39707760     3.19939653    -6.88465757     0.90378192    -2.71471442
O       2.03107996     1.70628558     4.40065042    -2.24977241    -1.01016907    -1.03824552
O       4.21877591     3.13950602     4.22313255     2.24977241     1.01016907     1.03824552
O       1.39762383     1.70630513     0.08878669     2.02809387    -1.00883338    -1.16021922
O       4.85223209     3.13948651     8.53499603    -2.02809387     1.00883338     1.16021922
O       3.47516327     0.71661024     0.08875872     2.24943559     1.00986799    -1.03851523
O       2.77469260     4.12918136     8.53502401    -2.24943559    -1.00986799     1.03851523
O       4.10861945     0.71659073     4.40067839    -2.02811521     1.00864183    -1.16059923
O       2.14123637     4.12920092     4.22310457     2.02811521    -1.00864183     1.16059923
O       1.07765221     2.94748509     2.32949891    -0.70335973    -2.92389225    -3.26402079
O       5.17220365     1.89830651     6.29428405     0.70335973     2.92389225     3.26402079
O       3.13695882     1.89826133     1.98242000     1.71090652    -3.39189671    -3.53266209
O       3.11289705     2.94753027     6.64136283    -1.71090652     3.39189671     3.53266209
O       0.33403953     0.52458931     1.98239245    -0.70339521    -2.92386988     3.26370428
O       5.91581629     4.32120229     6.64139037     0.70339521     2.92386988    -3.26370428
O       2.36928441     0.52463449     6.29431155    -1.71132818     3.39199775    -3.53369978
O       3.88057146     4.32115711     2.32947137     1.71132818    -3.39199775     3.53369978
