# total energy = -19517.06330348 eV

CRYSTAL
PRIMVEC
        5.93400000     0.00000000     0.00000000
        0.00000000     9.29699974     0.00000000
        0.00000000     0.00000000     4.64899994
PRIMCOORD
23 1
Ti      4.56994197     7.00011102     2.22657900    -0.93766264     0.27401696     0.13876506
Ti      4.54897200     2.28859202     2.36740598    -1.80643590    -0.29683191    -0.24018200
Ti      1.46788398     7.03477901     2.29284300     0.44438809     1.35855856    -0.38627420
Ti      1.42931902     2.30111902     2.38269502     1.17117546    -0.92216223    -0.21368703
Ti      2.82473800     4.45508998     0.27321199     0.38381648     0.67605743    -0.50871069
Ti      3.06650998     9.22509498     4.55960497    -1.38727136     0.21075829    -0.16374308
Ti      5.81909303     4.59377199     4.56593600    -0.11583441     0.16653144     0.28607596
Ti      0.00911503     0.06496497     0.09924502     1.15469186     0.39962440    -0.60124601
O       4.44936799     5.41261499     1.06003300    -0.72541080     0.69851448     0.08368867
O       4.46278501     0.96627200     0.91326802     0.05835995    -0.24108472     0.14944568
O       1.48601698     5.73099602     0.78423301     0.22896171    -0.79055924     0.45309642
O       1.57437799     0.78907398     0.90613899    -0.57072469     0.61820656     0.44632825
O       4.59502402     8.58270402     3.60647001    -0.85425654    -1.18732945     0.13113377
O       4.28183200     3.65380598     3.80616701     0.56497827     1.57466115    -0.74737086
O       1.39180602     8.55261801     3.48892398     1.16873960    -0.37276793     1.15288617
O       1.35910498     3.83712801     3.68119000     1.36159992     0.09524707    -0.63178996
O       3.02105599     1.44415901     3.20653103    -0.21462292     0.14807734     0.08717226
O       0.07491398     6.28037001     3.25230099    -1.07507762    -1.71374656     0.55672529
O       5.91043600     1.62687200     3.42151198     0.20683710    -0.34179924    -0.92890006
O       2.98976002     7.93209498     1.38596602     0.69690857    -0.88232837    -0.21978826
O       2.85220002     3.02194998     1.29601298     0.63776778     0.87908441     0.65709014
O       5.88115102     7.94683701     1.39687400     0.45487203    -0.04627267    -0.97067176
O       0.16354498     3.20539001     1.21704401    -0.84579967    -0.30445601     1.46995602
