# total energy = -19932.28683245 eV

CRYSTAL
PRIMVEC
        6.90445378     0.00000000     0.00000000
        0.00002917     5.43144591     0.00000000
        0.00000000     0.00000000    10.99295405
PRIMCOORD
24 1
Ti      2.50254972     3.21866986     4.07830755     0.46099640    -0.55363354     0.85437018
Ti      4.40193329     2.21277624     6.91464656    -0.46099640     0.55363354    -0.85437018
Ti      5.95465736     2.21277813     1.41812559     0.46112572     0.55363456    -0.85461778
Ti      0.94982565     3.21866822     9.57482865    -0.46112572    -0.55363456     0.85461778
Ti      2.50253525     0.50294703     1.41816966     0.46099640    -0.55363354    -0.85437018
Ti      4.40194776     4.92849925     9.57478457    -0.46099640     0.55363354     0.85437018
Ti      0.94981119     0.50294495     6.91460249    -0.46112572    -0.55363456    -0.85461778
Ti      5.95467182     4.92850133     4.07835162     0.46112572     0.55363456     0.85461778
O       2.18531352     1.91250447     5.60962031     0.86601137     1.22403736    -0.95801653
O       4.71916955     3.51894162     5.38333380    -0.86601137    -1.22403736     0.95801653
O       1.26697434     1.91252638     0.11317864    -0.86601574     1.22436724    -0.95854541
O       5.63750879     3.51891978    10.87977516     0.86601574    -1.22436724     0.95854541
O       4.71915509     0.80321861     0.11314298    -0.86601137    -1.22403736    -0.95801653
O       2.18532799     4.62822749    10.87981083     0.86601137     1.22403736     0.95801653
O       5.63749433     0.80319676     5.60965598     0.86601574    -1.22436724    -0.95854541
O       1.26698868     4.62824940     5.38329814    -0.86601574     1.22436724     0.95854541
O       0.25087253     3.30371329     2.96947114    -1.27980024     0.24695146     0.12342457
O       6.65361054     2.12773281     8.02348297     1.27980024    -0.24695146    -0.12342457
O       3.70310686     2.12768215     2.52704087    -1.27987994    -0.24671132    -0.12348010
O       3.20137621     3.30376401     8.46591305     1.27987994     0.24671132     0.12348010
O       0.25085807     0.58799033     2.52700576    -1.27980024     0.24695146    -0.12342457
O       6.65362500     4.84345583     8.46594817     1.27980024    -0.24695146     0.12342457
O       3.20136175     0.58804099     8.02351802     1.27987994     0.24671132    -0.12348010
O       3.70312132     4.84340511     2.96943603    -1.27987994    -0.24671132     0.12348010
