# total energy = -19517.36040091 eV

CRYSTAL
PRIMVEC
        7.60600008     0.00000000     0.00000000
        0.00000000     7.60600008     0.00000000
       -1.89786986    -1.89786986     4.85670466
PRIMCOORD
23 1
Ti      3.86244998     6.58640898     1.24221798     0.29181389    -0.93230935    -0.15010851
Ti      3.74974502     2.79139401     1.12926499    -0.54044120     1.08114748     1.10132602
Ti      0.12516502     6.74450201     1.20946900    -0.93075743    -0.92010483     0.30325067
Ti     -0.09268000     2.87475700     1.20834101     2.85728574     1.92801261    -1.44681145
Ti      5.57685420     2.98151121     3.58532584    -1.69234161    -1.02701700     4.06202748
Ti      5.69947722    -0.94547776     3.68871781     0.83603718     1.83367417    -1.27922611
Ti      1.84676224     2.72278724     3.57700082     0.65068192     0.71820400     1.26756898
Ti      1.86965223    -1.08087877     3.62656780    -0.33346526    -0.60344071    -0.14595490
O       3.77010601     4.72570498     0.64767099     0.04424330     0.11732205     1.29390583
O       3.81737202     0.88655499     0.98080701     0.07236038     0.12299288    -0.96505724
O       0.05658101     4.72233301     0.70648603     0.14280941     0.73613333     0.03744402
O       0.23969099     1.08641301     0.88455502    -0.39277266    -2.61081790    -0.33831051
O       5.83760920     4.82234920     4.06261281     0.11844125    -0.47654926     0.47590366
O       5.51462920     0.89040322     4.07006781     0.01815225     0.81623737    -0.77338066
O       1.69018722     4.70431421     3.86700281    -0.21495613     0.67586023     1.69220714
O       2.09364322     0.89212125     4.02178779    -0.38861879    -0.48041209     0.83164291
O       3.66007620     3.07401520     3.28023780     2.88444740    -0.66708659    -0.61381537
O       3.81449922    -1.04248580     3.15681879     0.54033219    -0.21448151     0.07768411
O       0.09686023    -0.66479977     3.34794682    -1.22079546    -0.36133320    -0.67965389
O       5.85066702     6.50008700     1.60194299    -1.03004473     0.57457389     0.56276378
O       5.84620701     3.06313500     1.83990199    -2.07734131    -0.39870806    -2.17201296
O       1.84317500     6.36246202     1.67084600     1.44482090     0.79417035    -0.09948425
O       1.91063701     3.05479299     1.79406698    -1.07989098    -0.70606710    -3.04190850
