# total energy = -19959.50224903 eV

CRYSTAL
PRIMVEC
        7.60600008     0.00000000     0.00000000
        0.00000000     7.60600008     0.00000000
       -1.89786986    -1.89786986     4.85670466
PRIMCOORD
24 1
Ti      3.91648501     6.75000799     1.12611200     0.00267883    -2.81584957     0.14056612
Ti      3.79564898     2.72058798     1.13568698    -1.13232891     2.35150174     1.94769647
Ti      0.00269298     6.61563200     1.18673200    -0.13665084     1.01010762    -0.98873609
Ti     -0.16277699     2.88088101     1.36657898     1.85313512    -1.36084838     0.30150387
Ti      5.64104721     2.74643321     3.72783084     0.01937121     1.26565351     0.03584479
Ti      5.67791721    -0.90129078     3.61639283     1.18336944    -1.33573641     1.23417600
Ti      2.02952424     2.83395823     3.71874280    -1.24542252    -0.61364593    -1.91098599
Ti      2.06785223    -0.94790679     3.61161880    -0.69026072    -0.05372091    -2.60037022
O       3.94536698     4.80060198     0.68589198    -0.41929309    -1.44342891     2.77945019
O       3.97533201     0.93007701     0.67550503    -0.04701804     0.13957573     0.16893337
O      -0.33215001     4.64609000     0.89769401     1.10064673     2.22594213    -1.09971265
O      -0.07134802     1.04988502     0.80623398     0.11286556    -1.37907674    -0.50427913
O       5.38376621     4.78947222     3.96998182     0.88358127     0.02885524     1.30381667
O       5.69427223     0.94522524     4.04022581     0.06221044     0.25556852     0.35427629
O       2.12121420     4.62253124     4.00986083    -0.42503051     4.33043198    -0.39929890
O       1.76153121     0.86599322     4.07105679     0.08229847    -0.20551786    -0.32605123
O       3.73771322     2.77679020     3.10002183     1.25088458    -0.67438441     0.92948885
O       3.90432224    -0.68383978     3.05102583    -2.42426167    -0.28850179     1.04602131
O      -0.15857177     2.96768724     3.30793980     0.85979856    -0.13061235     0.54281279
O      -0.09829076    -0.98987679     3.03401083     2.15265641    -0.35110766     2.12710246
O       5.77143897     6.76554802     1.62584900    -1.83585884     0.00803881    -1.05658315
O       5.64425397     2.86776699     1.78863302    -1.68793834    -0.67058226    -1.57739012
O       1.94359300     6.74988797     1.59433300     0.22004949    -0.47962919    -0.00257547
O       1.82588303     2.75255002     1.82228700     0.26051738     0.18696709    -2.44570648
