# total energy = -19961.22393052 eV

CRYSTAL
PRIMVEC
        7.60600008     0.00000000     0.00000000
        0.00000000     7.60600008     0.00000000
       -1.89786986    -1.89786986     4.85670466
PRIMCOORD
24 1
Ti      3.75955099     6.56980800     1.26175801     0.01311006    -0.39388775    -0.51414755
Ti      3.74674099     2.78029801     1.24859399     0.10152467     0.52675881    -0.33597672
Ti      0.05163399     6.72788701     1.18581197    -0.44395023    -0.41339729     0.21998495
Ti     -0.02405100     2.92487299     1.14013699     0.36768126     0.58653056     0.28115281
Ti      5.72990020     2.99658122     3.59334383     0.44528335    -0.59054662     0.59493781
Ti      5.71283820    -0.90648375     3.58807883     1.28319564     0.30542454     0.52682129
Ti      1.86466923     2.75660923     3.62967481    -0.57850485     0.10078162     0.07625303
Ti      1.90192220    -1.07541576     3.66928780    -1.11254786     0.19890781    -0.02460547
O       3.59357000     4.73236002     0.79337100     0.90097942    -0.56635202    -0.24651232
O       3.69353100     0.91431901     0.98452999     0.63881319    -0.78171361    -1.04162652
O       0.10450700     4.81596002     0.78056798    -0.40870502    -0.03472533    -0.14907904
O       0.11437701     1.04453900     0.71723801    -0.65245958    -0.64691911     0.32771602
O      -1.53879077     4.78345224     4.11964182    -1.28171443     0.75266090    -0.52012511
O       5.73375425     1.04507522     4.05474479    -0.54359183    -0.62765742    -0.71020349
O       1.63201423     4.62725520     4.12469483     1.07483208     1.78768175     0.08281346
O       1.95049824     0.83760022     4.01383283     0.16106810     0.28444510     0.56398069
O       3.74527321     2.90957623     3.16671880     0.78933282     0.09670025     0.93362653
O       3.83368920    -1.21701078     3.22972984    -0.47393754     0.19151975     0.26162630
O      -0.04682975     2.87801123     3.20466779     1.39787228    -0.85336591    -0.41122111
O      -0.01178176    -0.92561377     3.19801180     0.44332366     0.32512486     0.50614756
O       5.77923598     6.60542301     1.61862398    -1.53249812     0.32743474    -0.40438274
O       5.76091300     3.09822098     1.65574402    -1.19427606    -0.54338563    -0.70175047
O       1.82880800     6.59464398     1.73166302     1.96992109     0.17908486     0.33457546
O       1.94328798     2.88563302     1.60439599    -1.36475158    -0.21110462     0.34999438
