# total energy = -19517.56774073 eV

CRYSTAL
PRIMVEC
        5.93400000     0.00000000     0.00000000
        0.00000000     9.29699974     0.00000000
        0.00000000     0.00000000     4.64899994
PRIMCOORD
23 1
Ti      4.53549899     7.12931701     2.19597901    -0.65323322    -0.66832021     0.76728997
Ti      4.52629300     2.24100300     2.30034801    -0.67704422    -1.07644287     0.47188862
Ti      1.47256900     7.07652200     2.26780202    -0.03951504    -0.06378626     0.31044128
Ti      1.46225300     2.31808100     2.36484101     0.44305523    -1.92038466     0.52484925
Ti      2.85439500     4.45916501     0.20586900     1.55295048     0.02749282     0.65153372
Ti      2.97229199     9.23604599     4.54475197    -0.81316464     0.92827503    -0.33076097
Ti      5.87221099     4.61339499     0.00961298    -1.02391727     0.68624029    -0.36766377
Ti      0.01342099     9.24628901     0.05083700     0.64271921     2.19807933    -0.63793644
O       4.45047301     5.62716001     0.93163999    -0.22244961    -0.27127205     0.10665351
O       4.42013899     0.88890501     0.92994101     0.43763586     0.54459765     0.55749739
O       1.56136801     5.60536601     0.98765499    -0.19114899    -0.26037931    -0.24752096
O       1.58032499     0.80862798     0.87662598    -1.06045241     0.95469929     0.90237218
O       4.54405499     8.51273699     3.67165603    -0.59145782    -1.29498210    -0.96616076
O       4.37217500     3.69450399     3.86592901     0.55978850     0.84746240    -0.72448957
O       1.32389199     8.55816400     3.51673399     1.35393983    -0.93821723     0.67853109
O       1.50928400     3.78754198     3.79605798    -0.28746924     0.23730417    -0.79500030
O       2.89331302     1.39658301     3.27628003     0.83532062     0.70347028    -0.65118097
O       0.06746502     6.18996600     3.23148200    -0.47774148    -0.74414592     0.11362018
O       0.02695401     1.54662402     3.38543998    -0.56199862     0.24138940    -1.02953411
O       2.95578700     8.00133798     1.32313702     0.49903074    -1.95432323     1.05936509
O       2.92671702     3.05383698     1.40457602     0.57788753     1.53570815    -0.17597331
O       0.01036298     7.93838298     1.38035801     0.35770177    -0.19814548    -0.38197711
O       0.06276698     3.19574602     1.37913799    -0.66043720     0.48568028     0.16415651
