# total energy = -19520.00984883 eV

CRYSTAL
PRIMVEC
        5.17575250     0.00001323     0.00000000
        0.00001429     5.50856584     0.00000000
        0.00000000     0.00000000     9.26345890
PRIMCOORD
23 1
Ti      1.84401420     3.37146847     3.40633370    -0.00911816    -0.02991531     0.02609928
Ti      3.37335800     2.16952240     5.76936633    -0.00810129     0.01697520     0.01416781
Ti      4.57431204     1.94667456     1.42508289     0.00890682    -0.02133065     0.01316920
Ti      0.84996819     3.31139459     7.94317804    -0.02162813    -0.00008536    -0.03553703
Ti      2.02267296     0.48820133     1.25177407     0.04869645     0.01868704     0.00169821
Ti      3.16095291     5.16713798     7.91282433     0.02550715    -0.01315891     0.00046717
Ti      0.61940217     0.70464101     5.66262592    -0.01653811     0.01351064    -0.00808072
Ti      4.57222659     4.83300130     3.57288693    -0.00302876    -0.00412148    -0.01005713
O       1.53345921     1.95028993     4.66130571    -0.00152029     0.00141642     0.01496845
O       3.57624016     3.52076007     4.50544386    -0.00683502     0.00037332    -0.01485610
O       0.73605013     2.11472336     0.09596645    -0.01902334     0.01312806     0.00463210
O       3.54066164     0.85457857     0.08709486    -0.01569093     0.01307432     0.01973657
O       1.69128418     4.70688408     9.14224729     0.01593776     0.01414956    -0.00966581
O       4.06390013     0.77146037     4.70135049    -0.01251999    -0.02955073    -0.00551708
O       1.03619353     4.63683077     4.62042064     0.01030833    -0.01415496     0.00061732
O       0.18012790     3.36971533     2.38952979    -0.02660039    -0.00298299     0.00745106
O       4.94173230     2.15015567     6.83414840     0.00243021    -0.01095625     0.00219855
O       2.78289096     2.12200525     2.10089708     0.01832760     0.04256489    -0.01892281
O       2.48752085     3.41529986     7.13855142     0.00912639    -0.01006767     0.01043843
O       0.27054029     0.55434797     2.20513293    -0.00005734     0.00719523    -0.01071816
O       4.89878078     4.77418344     7.34828521    -0.01153989     0.04224453    -0.02217732
O       2.32062441     0.74055369     6.75971970    -0.00780921    -0.01773856     0.03032566
O       2.80627435     4.86022517     2.45925696     0.02077092    -0.02925685    -0.01043791
