# total energy = -4988.35905921 eV

CRYSTAL
PRIMVEC
        3.56592985     0.00000000     0.00000000
        0.53188972     3.52603872     0.00000000
       -2.04894192    -1.76304701     4.56384656
PRIMCOORD
6 1
Ti      0.39878762     2.64466381     1.14096139     0.00155989    -0.00181417    -0.00090374
Ti      1.65009041    -0.88167178     3.42288467    -0.00155989     0.00181417     0.00090374
O       0.13300994     0.88150440     0.74341319     0.00031085     0.00144573     1.00126173
O       1.91586793     0.88148749     3.82043287    -0.00031085    -0.00144573    -1.00126173
O      -0.13298812    -0.88148563     3.02533647     0.00144419     0.00034761     1.00189242
O       2.18186594     2.64447753     1.53850959    -0.00144419    -0.00034761    -1.00189242
