# total energy = -19073.03524084 eV

CRYSTAL
PRIMVEC
        5.17600016     0.00000000     0.00000000
        0.00000000     5.50899976     0.00000000
        0.00000000     0.00000000     9.26300011
PRIMCOORD
22 1
Ti      2.11051498     3.47506800     3.32619102    -0.28005854    -0.59219187     0.65623936
Ti      3.47283403     2.06648902     5.84251901    -0.18926026     0.15431895     0.03939523
Ti      4.56542899     2.34688899     1.21020398    -1.65097614    -0.14634313     0.27419848
Ti      0.48985398     3.00582701     7.96161799     0.97386610     0.06373021    -1.48971238
Ti      1.94565298     0.42102400     1.34394802    -0.15298558     0.68402528    -1.73868345
Ti      3.10737199     5.23568400     8.04988402    -0.32068816     0.59010182     0.65622753
Ti      0.67801100     0.21344502     6.11520998     0.27123889     0.72550696    -0.15365072
Ti      4.71888902     5.06776299     3.21407699     0.88904049    -1.07972052     2.83615744
O       3.67176901     3.25573700     4.36529400    -0.41425912     0.52935923     1.33300564
O       0.72016399     1.82458199     0.18433397     1.71677404     0.23177424    -0.99739685
O       4.21342399     3.76970902     8.73402701    -0.50121669    -0.76256326     0.84888859
O       3.53803200     0.72152498     0.36854999    -0.61739486     0.70904469    -0.88984345
O       1.61367702     4.69869599     9.05742602     0.31831529     0.11726112     0.69064459
O       4.46260599     0.79348599     4.92854000    -1.18489847    -0.26942857    -1.75498450
O       1.04471601     4.85246802     4.38439200     0.84930665    -0.90574856    -1.00675618
O       0.50723402     3.62886501     2.22204702    -1.24730226    -0.16303603     0.16223538
O       4.49611598     1.14743398     7.25137999     0.65946044     0.37312789     0.71375701
O       2.74317300     1.96020599     2.32457199    -0.12871384     0.62149603    -0.47438645
O       1.41608298     4.17099599     6.62509200     1.08396567    -1.73488258     1.62637171
O       0.20075403     0.79818302     2.17833100     0.30336663     1.14702791     0.36721872
O       1.99245998     1.35183102     7.10370901     0.06368985    -0.07047833    -1.15334717
O       3.00670999     4.84775299     2.48951601    -0.44127011    -0.22238148    -0.54557904
