# total energy = -4989.80634725 eV

CRYSTAL
PRIMVEC
        2.96026942     0.00000000     0.00000000
        0.69185355     4.58640932     0.00000000
       -0.00000434    -0.00006021     4.65147232
PRIMCOORD
6 1
Ti      1.82605904     2.29317447     2.32573611     0.00000000     0.00000000     0.00000000
Ti      0.00000000     0.00000000     0.00000000     0.00000000     0.00000000     0.00000000
O       1.61496579     0.89381184     0.90650341    -0.86068739     0.31801858     0.29268858
O       2.03715229     3.69253711     3.74496875     0.86068739    -0.31801858    -0.29268858
O       0.21109136     1.39933824     3.23224051     0.86061334    -0.31806949     0.29272946
O       0.48075742     3.18701080     1.41923165    -0.86061334     0.31806949    -0.29272946
