# total energy = -4986.34261748 eV

CRYSTAL
PRIMVEC
        3.30000398     0.00000000     0.00000000
        1.51704943     4.94305421     0.00000000
       -0.00001010    -0.00006776     5.23110534
PRIMCOORD
6 1
Ti      2.40852172     2.47149327     2.61555267     0.00000000     0.00000000     0.00000000
Ti      0.00000000     0.00000000     0.00000000     0.00000000     0.00000000     0.00000000
O       1.94565062     0.96331536     1.01946537     0.81407841    -0.24932305    -0.63086076
O       2.87139288     3.97967118     4.21163992    -0.81407841     0.24932305     0.63086076
O       0.46286695     1.50815048     3.63501920    -0.81495644     0.24988278    -0.63120863
O       1.05417259     3.43483581     1.59608615     0.81495644    -0.24988278     0.63120863
