# total energy = -39039.69819175 eV

CRYSTAL
PRIMVEC
        7.60629642    -0.00000847    -0.00005503
       -0.00000847     7.60629642    -0.00005503
       -3.80314186    -3.80314186     9.70738094
PRIMCOORD
46 1
Ti      1.90141752     4.75408703     6.06703040    -0.00001723     0.00027614     0.40822757
Ti      3.80298845     6.65565796     1.21333993     0.07979730    -0.00007739     0.35581561
Ti      1.90142176     0.95093882     6.06705792    -0.00001466     0.00027639     0.40815095
Ti      3.80299269     2.85250975     1.21336745     0.07979730     0.00010156     0.35581381
Ti     -1.90173069     4.75409127     6.06705792     0.00063609    -0.00048003    -0.90691610
Ti     -0.00015976     6.65566220     1.21336745    -0.07999579     0.00000283     0.35587141
Ti     -1.90172646     0.95094305     6.06708544     0.00066386    -0.00048003    -0.90640316
Ti     -0.00015553     2.85251398     1.21339497    -0.07999579     0.00009436     0.35587089
Ti      3.80330151     0.95063200     8.49387558    -1.19186668     0.00031085    -0.02501427
Ti      5.70487244     2.85220293     3.64018511    -0.00003522    -0.00006376     0.13103426
Ti      3.80330575    -2.85251621     8.49390310    -1.19140260     0.00030828    -0.02531766
Ti      5.70487668    -0.95094528     3.64021263    -0.00003471    -0.00030262     0.13102887
Ti      0.00015330     0.95063624     8.49390310     1.19195667     0.00011210    -0.02525441
Ti      1.90172423     2.85220717     3.64021263    -0.00005322     0.00015015    -0.01579044
Ti      0.00015754    -2.85251197     8.49393062     1.19142445     0.00011184    -0.02579563
Ti      1.90172847    -0.95094104     3.64024015    -0.00005039     0.00003728    -0.01579275
O       1.90161782     2.85235936     5.64425053     0.00014167     0.00002211     0.06446812
O       3.80318875     4.75393029     0.79056007    -0.25786272     0.00017226    -0.09712346
O       1.90162205    -0.95078885     5.64427805     0.00013910     0.00010876     0.06445784
O       3.80319298     0.95078208     0.79058758    -0.25756781     0.00017381    -0.09770350
O      -1.90153040     2.85236359     5.64427805    -0.00016969    -0.00025403     0.31394493
O       0.00004053     4.75393452     0.79058758     0.25774907     0.00018049    -0.09775826
O      -1.90152616    -0.95078462     5.64430557    -0.00016995     0.00027202     0.31394595
O       0.00004477     0.95078631     0.79061510     0.25773879     0.00018203    -0.09799378
O       3.80310111     2.85235957     8.91665550     0.68596981    -0.00016455    -0.39230858
O       5.70467205     4.75393050     4.06296503    -0.00022780    -0.00001363    -0.24422635
O       3.80310535    -0.95078864     8.91668302     0.68596466    -0.00039415    -0.39230935
O       5.70467628     0.95078229     4.06299255    -0.00023423    -0.00001131    -0.24329870
O      -0.00004710     2.85236380     8.91668302    -0.68605671     0.00013575    -0.39217720
O       1.90152383     4.75393474     4.06299255    -0.00004808    -0.00007739    -0.00879960
O      -0.00004286    -0.95078441     8.91671054    -0.68605388    -0.00070757    -0.39217462
O       1.90152807     0.95078652     4.06302007    -0.00003137    -0.00008305    -0.00863043
O       1.90157379     0.95083224     8.07109571     0.00118374     0.00012778    -0.13963075
O       3.80314472     2.85240318     3.21740525    -0.04877590    -0.00007456    -0.05289430
O       1.90157802    -2.85231597     8.07112323     0.00087649     0.00013061    -0.13938264
O       3.80314895    -0.95074504     3.21743276    -0.04878490     0.00018692    -0.05289738
O      -0.00000349     2.85240741     3.21743276     0.04887258    -0.00001800    -0.05291564
O       0.00000074    -0.95074080     3.21746028     0.04888569     0.00012521    -0.05292284
O       3.80314509     4.75388663     6.48981032     1.10254524    -0.00007328     0.53848793
O       5.70471602     6.65545756     1.63611985    -0.00002263     0.00016558    -0.16384515
O       3.80314932     0.95073842     6.48983784     1.10262854    -0.00007688     0.53824959
O       5.70472025     2.85230935     1.63614737    -0.00002314    -0.00018023    -0.16384849
O      -0.00000312     4.75389087     6.48983784    -1.10337030    -0.00006865     0.53764281
O       1.90156781     6.65546180     1.63614737    -0.00021674     0.00012187    -0.09039154
O       0.00000111     0.95074265     6.48986535    -1.10367370    -0.00007019     0.53690233
O       1.90157204     2.85231359     1.63617489    -0.00021469    -0.00021597    -0.09039565
