# total energy = -19960.75192178 eV

CRYSTAL
PRIMVEC
        5.93400000     0.00000000     0.00000000
        0.00000000     9.29699974     0.00000000
        0.00000000     0.00000000     4.64899994
PRIMCOORD
24 1
Ti      4.42939202     7.07383499     2.19207897    -0.65294680    -1.38977845     0.62382879
Ti      4.47117702     2.22472799     2.38930101     0.51592187     2.01227978    -0.28417231
Ti      1.48283699     7.00236500     2.39489198     0.82375168    -0.79016534     0.83261016
Ti      1.47255000     2.25754598     2.32115102    -0.62563345     1.44382691    -0.78584563
Ti      2.98032098     4.61948498     0.09391700     0.32404525    -0.00589169    -0.73397875
Ti      3.00560899     0.03283598     4.58447302    -1.69779132    -0.58106927     1.00552848
Ti      0.05064501     4.69208101     4.57514500    -0.29872245    -0.69424413    -0.19767471
Ti      5.88592499     0.00096898     0.06987299     1.30682383     0.16921670    -0.22193642
O       4.48371201     5.52655199     0.93420602    -0.53658197     0.64094489     0.15234255
O       4.43608701     0.91832700     0.94405100     0.20848852    -0.19237875     0.09956138
O       1.46033802     5.51903799     0.84298698     0.34766110     0.48135466     0.67750547
O       1.44563700     0.91742999     0.82925203    -0.10565824     0.19389442     0.84456631
O       4.38590101     8.45072001     3.79393899     1.44463990    -1.09680653    -1.18500132
O       4.44693901     3.74848198     3.74595802    -0.54788223    -0.46269667    -0.26440335
O       1.55381998     8.33543298     3.77253600    -1.08872735     0.41158106    -0.27507137
O       1.42446499     3.79670500     3.61206601     0.76558250    -0.54648715     0.71267484
O       2.96604701     6.17578400     3.34244898     0.44832008    -0.03071261    -1.27114076
O       2.96671001     1.33346100     3.29447700    -0.10000849     1.46450399    -1.41044575
O       0.01643799     6.03399699     3.12972301    -0.39479149     0.74625243     0.18405737
O       5.88947302     1.37823500     3.26104702     0.17355030    -0.03060822    -0.27093087
O       2.94162198     7.81223501     1.31124402     0.54604621    -0.00858826     0.92998096
O       2.88807200     3.14570300     1.37395602     0.47724886     0.04570318     0.35770949
O       0.06702501     7.99896002     1.45889998    -0.94180444    -0.59934211     0.17321014
O       0.02560398     3.24862702     1.44447598    -0.39153211    -1.18078908     0.30702557
