# total energy = -19941.03519575 eV

CRYSTAL
PRIMVEC
        5.75330102     0.00000000     0.00000000
        2.35512392     5.65222130     0.00000000
        0.00000000     0.00000000    10.51788585
PRIMCOORD
24 1
Ti      3.48093920     3.34950122     3.90206063     0.88151847    -2.97258716     0.94144165
Ti      4.62748583     2.30272025     6.61582533    -0.88151847     2.97258716    -0.94144165
Ti      5.92133102     2.30272217     1.35684030    -2.20370336    -0.72378818     0.65786507
Ti      2.18709405     3.34949952     9.16104572     2.20370336     0.72378818    -0.65786507
Ti      2.30337736     0.52339054     1.35688247     0.88151847    -2.97258716    -0.94144165
Ti      5.80504771     5.12883109     9.16100355    -0.88151847     2.97258716     0.94144165
Ti      1.00953207     0.52338846     6.61578311     2.20370336     0.72378818     0.65786507
Ti      7.09889300     5.12883317     3.90210279    -2.20370336    -0.72378818    -0.65786507
O       2.65023525     1.99024327     5.36719666     1.49573313     2.00948936    -0.99258220
O       5.45818972     3.66197821     5.15068931    -1.49573313    -2.00948936     0.99258220
O       1.88501676     1.99026610     0.10828753     0.20770845    -0.83100630     1.21537300
O       6.22340835     3.66195546    10.40959808    -0.20770845     0.83100630    -1.21537300
O       4.28062785     0.83586742     0.10825339    -1.49573313    -2.00948936    -0.99258220
O       3.82779718     4.81635404    10.40963223     1.49573313     2.00948936     0.99258220
O       5.04584642     0.83584463     5.36723074    -0.20770845     0.83100630     1.21537300
O       3.06257851     4.81637692     5.15065516     0.20770845    -0.83100630    -1.21537300
O       1.64155063     3.43800157     2.84114338     0.54421661     1.92352012     1.80717715
O       6.46687434     2.21421990     7.67674258    -0.54421661    -1.92352012    -1.80717715
O       4.00827478     2.21416730     2.41783305     1.20217758     1.30252160     0.53745075
O       4.10015019     3.43805417     8.10005274    -1.20217758    -1.30252160    -0.53745075
O       0.46398875     0.61189073     2.41779942     0.54421661     1.92352012    -1.80717715
O       7.64443628     5.04033074     8.10008631    -0.54421661    -1.92352012     1.80717715
O       2.92258832     0.61194338     7.67677609    -1.20217758    -1.30252160     0.53745075
O       5.18583665     5.04027809     2.84110981     1.20217758     1.30252160    -0.53745075
