# total energy = -19928.36683492 eV

CRYSTAL
PRIMVEC
        5.93400000     0.00000000     0.00000000
        0.00000000     9.29699974     0.00000000
        0.00000000     0.00000000     4.64899994
PRIMCOORD
24 1
Ti      4.37543700     5.62735898     2.14002503     1.95135489     9.14204353     3.23251679
Ti      4.40560699     2.82973200     2.32283502     1.19289024    -4.91706281    -1.78358058
Ti      1.52837698     5.19957199     2.44204299    -0.25850472    11.21399812    -1.09947740
Ti      1.43050697     2.78271402     2.12626203    -0.44464315    -4.55629294    -1.60368505
Ti      2.74694900     4.46868401     0.09251003     3.21855004     2.75256699    -1.55277334
Ti      2.93947400     1.35059200     4.44124702     0.15941103    -5.61923006     3.75651372
Ti      0.10466602     4.10053799     4.62114199    -2.18910823     4.45955155     0.87039228
Ti      0.04799902     1.27315501     4.44744702    -0.98683604    -5.32506644    -1.35356625
O       4.44806700     5.43007398     0.44857900     2.32833944    -2.17065516    -1.17236306
O       4.41044102     1.40956500     0.91093202    -0.35828927     0.86657290     3.52453586
O       1.33453899     5.54393498     0.46290801    -1.24356387    -2.21353784     1.51754252
O       1.50484003     1.33522797     1.06135800     0.37684750     0.76177264     0.64167277
O       4.71547397     0.16042903     3.90215701    -0.23621736    -1.73795608     0.60320468
O       4.50674302     3.02235602     4.16058400    -0.40715336     2.40746825    -0.14079520
O       1.61553200     9.22694398     4.00926598    -0.12696703     1.81506015     0.51169497
O       1.67111699     3.06967901     3.94817400    -0.37395578     0.49874483     1.31190690
O       3.03276202     5.92150999     3.79807801    -0.91873520    -0.06301391    -4.14449308
O       3.10521401     1.42619503     2.81805698    -0.11032042     3.08493490    -6.74216081
O       0.00761602     5.62879200     3.53206902    -0.30819774     1.17824317     0.51514256
O       5.86597300     1.52379399     2.61319299     0.73046636     3.45695053    -0.05205663
O       2.81588598     6.59626401     1.67220202     0.06933419     0.21089713     1.65290293
O       3.10032700     4.26133898     1.88240101    -0.77259365    -6.28851829     2.60562479
O       0.13935999     6.95463200     1.80419602    -0.76883341    -1.61436645     0.97629220
O       5.85216200     4.34424200     1.97089998    -0.52327471    -7.34310446    -2.07499132
