# total energy = -19959.94370386 eV

CRYSTAL
PRIMVEC
        7.60600008     0.00000000     0.00000000
        0.00000000     7.60600008     0.00000000
       -1.89786986    -1.89786986     4.85670466
PRIMCOORD
24 1
Ti      3.88573399     6.77114598     1.05389401    -1.80819890     0.89977177     0.84087266
Ti      3.78141898     2.96052001     1.25255901     1.13814603    -1.46408850    -1.45850432
Ti     -0.13744898     6.62785298     1.23262400     1.74429257    -1.15567788    -0.01048136
Ti     -0.00304499     2.65738702     1.24610299    -0.50000107     2.39548819     1.58440357
Ti      5.57331221     2.78851920     3.74358979     1.56266155    -1.05817775    -0.43857380
Ti      5.68992123    -0.99399480     3.66820283    -0.58922944     1.03804883    -0.13459936
Ti      1.93432520     2.90815322     3.60050883    -1.90559747    -0.68361159     0.73396486
Ti      1.91216924    -0.83014078     3.49625980     1.12422016     0.37056964     0.67420598
O       3.95659400     4.89623198     0.76265898    -0.18522491    -1.89109670     0.70743724
O       4.02261601     1.13547499     0.59487900    -0.63334933    -1.72090400     0.88065330
O      -0.15776801     4.64926803     0.88904397    -0.05311618     1.60969732    -0.30434519
O      -0.15991001     0.93900402     0.89070803     0.34495347    -2.60834193    -1.13500877
O       5.64803521     4.69416025     4.11799179    -0.51718376     0.33907798    -0.07129055
O       5.82461922     0.85901020     4.18559779    -0.21686132    -0.22599260    -0.73170075
O       2.15071324     4.78747325     4.03324379    -0.18548254     0.39768913    -1.55782736
O       1.92552424     0.98195221     4.12800081    -0.64384561     1.00540404    -0.42297722
O       3.73371021     2.42471022     3.26237679     1.68304912     1.52184270    -0.59740710
O       3.80741624    -0.83882775     3.04710580     0.30038132    -0.36582081     1.03776987
O       0.00399524     2.69162124     3.32434181     0.41302319     0.75288793     0.04633130
O       0.05245221    -1.03068980     3.37151881    -1.26799322    -0.21562385    -1.62876232
O       5.65614300    -0.65859199     1.69958800     2.11395126    -0.99172756     0.22603245
O       5.76723101     2.70642900     1.74562700    -2.05940529     1.02847584     0.60649775
O       1.91821303     6.74969398     1.35931501    -0.85440258     0.10662677     1.34047470
O       1.89206098     2.69160198     1.65482198     0.99521270     0.91548250    -0.18716558
