# total energy = -19936.47248069 eV

CRYSTAL
PRIMVEC
        5.93400000     0.00000000     0.00000000
        0.00000000     9.29699974     0.00000000
        0.00000000     0.00000000     4.64899994
PRIMCOORD
24 1
Ti      4.48978300     6.08414299     2.26626502     0.36695826     4.73962783    -2.92841508
Ti      4.40650002     2.72426100     2.37128803    -2.16935393    -2.80564177    -2.85845457
Ti      1.51562598     5.29054100     2.43636598    -1.51423480    10.44895067    -0.52162509
Ti      1.39485001     2.77261600     2.14503797     2.49154927    -4.49323353    -1.11049226
Ti      2.82183298     4.47181902     0.06071499     4.39593935     5.57859865    -1.35292733
Ti      2.92382602     1.01107198     4.61764598     0.95923189    -5.02868113    -3.94247011
Ti      0.07947099     4.21264499     4.59157897    -2.90052760     5.06539907     0.24448449
Ti      5.91457401     1.05580498     4.29066900    -0.57407638    -9.62895383     3.31840992
O       4.70295798     5.37082200     0.52246898    -3.35219783     0.29429989     3.32819786
O       4.52517199     1.43117802     0.98751598    -0.65189805     0.08654516    -1.30790035
O       1.31883502     5.50314902     0.54774899     1.21806006    -1.33541682     1.22608242
O       1.55857898     1.34715002     1.00215900    -1.93040451     1.95657089     0.24138400
O       4.75123000     8.67596600     3.83088303     0.26584317     4.46334033     1.24886703
O       4.55136002     3.37867598     3.97755202    -3.01863513    -1.46681953     1.04895777
O       1.49039698     9.21540998     4.04253599     0.86187369     0.37288260    -0.56966720
O       1.47703398     3.40303999     3.91297699     3.18956393    -1.23985891    -0.90928820
O       3.03958201     6.04115601     3.65745799    -1.18590635    -2.76258812     0.50353480
O       2.84838000     1.74807799     2.75826402     1.96506659    -0.68349563     3.09480228
O       5.85757998     5.65603600     3.48686199     1.46729955    -1.32881628    -1.35538350
O       0.06003701     1.69086398     2.71603901    -1.08562840     0.02281675    -0.75580151
O       2.94019998     6.86103599     1.69181798    -0.13378766    -0.64182549     0.15822575
O       2.83626999     4.10721499     1.85937000     2.62280182    -2.38881566     1.30574320
O       0.20683898     7.05580899     1.91193598    -0.83808198    -0.93343781     0.01055464
O       5.86152801     3.69464698     1.65248302    -0.44945497     1.70855242     1.88318130
