# total energy = -4983.44328867 eV

CRYSTAL
PRIMVEC
        3.20415788     0.00000000     0.00000000
        0.00000000     3.34695668     0.00000000
        0.00000000    -0.00005850     4.35801612
PRIMCOORD
6 1
Ti      1.60207880     1.67344904     2.17900801     0.00000000     0.00000000     0.00000000
Ti      0.00000000     0.00000000     0.00000000     0.00000000     0.00000000     0.00000000
O       1.60207880     0.65226115     0.84931313     0.00000000    -2.30480483    -2.60831211
O       1.60207880     2.69463693     3.50870284     0.00000000     2.30480483     2.60831211
O       0.00000000     1.02116449     3.02832210     0.00000000     2.30375531    -2.60659358
O       0.00000000     2.32573360     1.32969392     0.00000000    -2.30375531     2.60659358
