# total energy = -19075.15853424 eV

CRYSTAL
PRIMVEC
        7.60600008     0.00000000     0.00000000
        0.00000000     7.60600008     0.00000000
       -1.89786986    -1.89786986     4.85670466
PRIMCOORD
22 1
Ti      3.79634199     6.76903498     1.12785399     0.47852387    -0.59969846     1.33611076
Ti      3.75196698     2.88544701     1.21287701     1.05337339     0.68344678    -0.41347879
Ti     -0.08372801     6.54532900     1.03823597    -0.82057945    -1.14545671    -0.13214627
Ti     -0.02019198     2.65190601     1.20580900    -1.32779838     1.84701178     0.56817801
Ti      5.66722222     2.71846423     3.56022183     0.64318381     1.24473321    -0.27061436
Ti     -1.40719280    -0.89524879     3.83858383    -1.27685864    -1.60194904    -1.93281415
Ti      1.96181623     2.95976424     3.69584583    -0.84215101    -1.24220119    -1.13610586
Ti      1.64537522    -0.81366977     3.75627983    -0.08847401     0.19466472    -0.49311129
O       3.75407200     4.80244801     0.68536698    -0.14849515     0.49911199     1.38514609
O       4.12534900     1.07093198     0.80143101    -1.49829601    -1.31143022     0.61873029
O      -0.18253599     4.65928001     0.58750401     0.14789351    -0.14142435     1.94639061
O       7.09400199     0.82805000     0.60723402     1.41995344     0.39599194     1.07296906
O       5.78404022     4.62596920     3.96967680     0.68890344     1.88245316     0.58274075
O       5.61045124     0.87014520     3.95431082     0.73698231    -1.04745239     0.36554133
O       2.09263525     4.86181424     4.18808783    -0.37661122     0.70034793    -1.64354848
O       2.13249520     1.00060724     3.99530184    -0.88969381    -0.42837603    -0.21666180
O       3.78259020     2.96303525     3.19226880    -0.29968378    -0.06281542    -0.16579225
O      -0.02090578     2.77860020     3.22207381     0.94045358    -0.20850626    -0.71006877
O       5.62042899     6.53446198     2.02584101     0.16556394     0.26472294    -0.80390532
O       5.65186100     2.89397000     1.57440101     0.96022408     0.04788244     0.33883938
O       1.66487402     6.58127099     1.82624498     1.33635965     0.48936236    -0.23864423
O       1.90086702     2.92694298     1.58363298    -1.00277354    -0.46041970    -0.05775471
