# total energy = -4988.97447813 eV

CRYSTAL
PRIMVEC
        2.94381980     0.00000000     0.00000000
        0.00000000     4.17323654     0.00000000
        0.00000000    -0.00005708     4.40388998
PRIMCOORD
6 1
Ti      1.47190990     2.08658958     2.20194499     0.00000000     0.00000000     0.00000000
Ti      0.00000000     0.00000000     0.00000000     0.00000000     0.00000000     0.00000000
O       1.47190990     0.81329115     0.85825329    -0.00000000     0.34204941     0.22004975
O       1.47190990     3.35988796     3.54563665    -0.00000000    -0.34204941    -0.22004975
O       0.00000000     1.27327530     3.06019917     0.00000000    -0.34250141     0.22054828
O       0.00000000     2.89990386     1.34369076     0.00000000     0.34250141    -0.22054828
