# total energy = -19961.03332544 eV

CRYSTAL
PRIMVEC
        5.93400000     0.00000000     0.00000000
        0.00000000     9.29699974     0.00000000
        0.00000000     0.00000000     4.64899994
PRIMCOORD
24 1
Ti      4.42955998     6.81758800     2.27222800     0.18428903     0.83513190     0.69463906
Ti      4.46056400     2.32372298     2.33866901     0.02710844    -0.65209860     0.47369919
Ti      1.49690300     7.02548301     2.34306399    -0.19016092     0.17697372    -0.08762117
Ti      1.46252902     2.44944200     2.32376600    -0.02855185    -1.61167785    -0.14148837
Ti      2.93131102     4.66575999     0.02207299     0.30628972    -0.81602988    -0.04563093
Ti      3.00278498     9.24614698     4.57034600     0.16558759     0.85293037     0.16493736
Ti      0.01071499     4.66218699     0.03994299    -0.41515104    -0.42444172    -0.50273030
Ti      5.93167998     9.21115301     0.11460101     0.07896144     1.11046347    -0.05778531
O       4.42183802     5.60119900     0.82086102     0.10113618    -0.02338959     0.35705900
O       4.48937199     0.95458797     0.77500300    -0.45655764     0.01158180     0.63892580
O       1.52517001     5.62366099     0.89733698    -0.18852801    -0.38923071    -0.28636469
O       1.47259800     0.90281602     0.94949200     0.08426125    -0.11741461    -0.62966160
O       4.47988601     8.44619401     3.67105001    -0.36692767    -0.60559658     0.28937468
O       4.49541598     3.73066702     3.75958602    -0.32248356     0.44913281     0.33773149
O       1.43259601     8.40448098     3.76755300     0.47640554    -0.41076885    -0.70677081
O       1.47110799     3.66847001     3.86443101     0.19253019     0.46255911    -0.33084428
O       2.88721600     6.16732902     3.29373102     0.55721328    -0.75971807    -0.25291308
O       2.99804900     1.45647899     3.19694397    -0.34229932    -0.17278257     0.04736077
O       0.00735699     5.94794298     3.12618297     0.01286838     0.49155680     0.42222800
O       0.00588900     1.41471400     3.08229100     0.28893271     0.30313729     0.42208942
O       3.00111098     7.82065602     1.36470299    -0.35765549     0.33843701     0.13939370
O       3.01962499     3.27437901     1.40813198    -0.57845497     0.49941743    -0.09547281
O       5.85780599     7.80607899     1.43440399     0.37117873     0.56865418    -0.34807299
O       5.92365602     3.40833901     1.52140899     0.40000826    -0.11682686    -0.50208187
