# total energy = -19517.90530272 eV

CRYSTAL
PRIMVEC
        5.17600016     0.00000000     0.00000000
        0.00000000     5.50899976     0.00000000
        0.00000000     0.00000000     9.26300011
PRIMCOORD
23 1
Ti      1.84691899     3.21561398     3.41389802    -0.51364027    -0.10570555     1.79719869
Ti      3.36803100     2.26117201     5.89389699     0.87804568     1.04298895    -2.60736285
Ti      4.32447898     2.03790599     1.43706501     1.41208638     0.09741271    -0.15235103
Ti      0.88733299     3.34345701     7.80819898    -0.45951441     0.61901671    -0.29159997
Ti      1.95504001     0.28122098     1.33041701    -0.21615375    -0.73593124    -0.80077783
Ti      3.28096399     5.32856302     7.86734797    -0.80320933    -0.72227662     0.78587109
Ti      0.80214000     0.54597000     5.90137199    -1.63817564    -0.44795627    -2.72135533
Ti      4.43533701     4.85964001     3.40664898     1.19241921     0.48775568     2.50963750
O       1.64082101     2.02484801     4.87236497    -0.18219898    -0.51990451    -0.56687524
O       3.55391499     3.55697199     4.41980301    -0.11024097    -0.39358642     0.86248819
O       0.29717398     2.63516898     0.06236603    -0.20472828    -0.45460540     0.45947096
O       3.53938098     0.87533998     0.15587699    -1.07551522    -0.35856541    -0.45039471
O       1.76743699     4.68198102     8.98349900     0.67102192     0.93927113     0.72935642
O       4.23914798     0.74466902     4.92379502    -0.14791279    -0.27516882    -1.05045004
O       0.98702299     4.74235898     4.42566201     0.12765815     0.17741621     0.36376315
O       0.13577598     3.30370099     2.56104300     0.24041109    -0.05162571    -0.30170673
O       5.00507898     1.96919999     6.83470498    -0.09561551     0.86954510     0.75901539
O       2.63172801     1.77799301     2.30302601    -0.39074175     0.81861410     0.06534178
O       2.54788601     3.73031802     6.89708402     0.06576602    -0.38369075     0.37137465
O       0.10604098     0.57511502     2.02995102     1.02885739    -0.22383930    -0.08598106
O       4.93069698     4.76954298     7.19408200     1.08940252    -0.33074812     0.14832005
O       2.33549400     1.09071999     6.93434001    -0.34555331    -0.61995928     1.52635678
O       2.87259499     4.50282399     2.32699801    -0.52246815     0.57154282    -1.34933987
