# total energy = -19075.87062777 eV

CRYSTAL
PRIMVEC
        7.60600008     0.00000000     0.00000000
        0.00000000     7.60600008     0.00000000
       -1.89786986    -1.89786986     4.85670466
PRIMCOORD
22 1
Ti      3.68225799     6.59483999     1.25746300     0.16000649     1.35492327    -1.17395405
Ti      3.80581003     2.89683099     1.23803499     1.12594100    -1.90508273     1.29690760
Ti      0.10321798     6.72152899     1.08277598     0.22992227     0.52865860    -0.58800920
Ti      0.14401898     2.91510200     1.01229698    -1.35429233    -1.41425125     1.08198180
Ti      5.78824421     2.82172423     3.52519781    -0.62386196     0.25790051    -1.14980882
Ti      6.07148322    -0.92622979     3.58871083    -0.97620427    -0.16012117     0.75413672
Ti      1.90739421     2.75559120     3.70539483     0.35381169     0.65682506    -1.01901289
Ti      1.24178220    -0.90352576     3.94060481     1.62061012    -1.21521822    -0.53468424
O       3.75477199     4.66786802     0.83317101    -0.16692816     2.16773670     0.02593601
O       3.83386298     0.91088201     0.87693000    -0.30295140    -1.16769624     1.28778995
O       0.16872700     4.74919198     0.61347699     0.35085904     0.43822670     0.12700843
O      -0.06760901     1.01045401     0.74970102     0.85808826    -0.48934848    -0.07696369
O       5.66040621     4.85783721     3.96588583     0.49714175    -0.75990988    -0.45431744
O       5.46718322     0.88190421     3.84668680     1.13656197     0.84835354     0.48451789
O       1.84195324     4.76463523     4.15247081    -0.74271382    -0.37077481     0.59378955
O       1.95201925     0.85462020     4.16100983    -0.61661016     0.64886260    -0.90262569
O       3.75568122     2.87931025     3.29244782     0.26461804     0.13525293    -0.39989205
O       0.06841823     2.79682422     3.04141381    -0.30564669     0.15476633     0.93732763
O       5.99638503     6.67863801     1.71637900    -1.83489571    -0.54037307    -0.09938732
O       5.73400498     2.90451401     1.53523300    -0.08682799     0.19646964     0.71368297
O       1.81185898     6.61651298     2.11860599     0.73793799     0.08543856    -1.01061104
O       1.94535701     2.66026998     1.56495800    -0.32456564     0.54936139     0.10618789
