# total energy = -19068.32847872 eV

CRYSTAL
PRIMVEC
        5.17600016     0.00000000     0.00000000
        0.00000000     5.50899976     0.00000000
        0.00000000     0.00000000     9.26300011
PRIMCOORD
22 1
Ti      1.65363001     3.35026901     3.16002000     1.20863002    -0.99359650     2.77150445
Ti      3.75027002     2.72296901     6.15664699    -3.53776856    -0.42313098    -1.44479879
Ti      4.30793902     2.22604300     1.37201998    -1.31507450     1.42595697    -0.27102600
Ti      1.13866202     2.09655999     8.20659801     1.84598488    -0.38314542    -0.45680524
Ti      2.09694598     0.44604599     1.38900699    -0.52179221     0.62256484    -2.10121710
Ti      3.26831300     5.32343497     7.85612502    -0.75702175    -0.04011745     0.40978180
Ti      0.58836700     0.26626199     6.18220398     2.77807440    -3.27936539    -3.81259182
Ti      4.45908902     5.18983502     3.36907602    -0.77399798    -0.48696095     1.25022997
O       2.97151298     3.64758698     4.75658501     1.41805776    -0.63003364    -0.19346479
O       0.81150199     1.95380200     0.82849901     3.73722607     0.99297738    -2.29598878
O       4.82902800     4.02928200     6.82360998    -0.64182035     0.82823183     0.75854205
O       3.39134798     1.19843301     0.10069698    -1.59777769    -0.12651992    -1.57860676
O       1.45547499     0.10327598     8.20407902     1.22621740    -0.72361926     2.20056662
O       4.31886102     1.18105298     5.17984500     1.39124526    -0.93552837    -2.16411685
O       0.81016201     4.70803898     4.39564898    -0.98018279     0.57962508    -0.51524849
O       0.06907398     3.64416299     2.29322200    -0.71122782     0.47689842     1.00905269
O       4.92949902     1.10580699     7.38470303    -6.16067759     3.96385322     3.45430126
O       2.87336399     1.74088001     2.54524102    -1.90771349    -0.19029693     1.80294974
O       2.11555402     3.42271702     7.39179501     2.76588736     1.01253500     0.65250971
O       4.85331301     0.51277900     1.82786098     1.42906492    -2.75535509     2.45559829
O       2.06529901     1.33902498     6.33351099     0.64448607    -0.76941293    -0.66954379
O       2.78636699     4.35622099     2.27287900     0.46018110     1.83443908    -1.26162793
