# total energy = -4987.81893545 eV

CRYSTAL
PRIMVEC
        3.37994125     0.00000000     0.00000000
        0.00000000     4.79149381     0.00000000
        0.00000000    -0.00006554     5.05631813
PRIMCOORD
6 1
Ti      1.68997063     2.39571396     2.52815906     0.00000000     0.00000000     0.00000000
Ti      0.00000000     0.00000000     0.00000000     0.00000000     0.00000000     0.00000000
O       1.68997063     0.93377873     0.98540192     0.00000000    -0.19130326    -0.25913079
O       1.68997063     3.85764914     4.07091615     0.00000000     0.19130326     0.25913079
O       0.00000000     1.46190868     3.51356201    -0.00000000     0.19172106    -0.25903128
O       0.00000000     3.32951924     1.54275606    -0.00000000    -0.19172106     0.25903128
