# total energy = -19944.09765511 eV

CRYSTAL
PRIMVEC
        5.99352150     0.00000000     0.00000000
        0.00002359     4.25261283     0.00000000
        0.00000000     0.00000000     9.31170628
PRIMCOORD
24 1
Ti      2.17237735     2.52009441     3.45457661    -0.17855650     1.83791778    -2.83823823
Ti      3.82116785     1.73251842     5.85712977     0.17855650    -1.83791778     2.83823823
Ti      5.16903478     1.73251990     1.20123935    -0.17675107    -1.83865543     2.84043447
Ti      0.82451041     2.52009313     8.11046708     0.17675107     1.83865543    -2.84043447
Ti      2.17236555     0.39378810     1.20127668    -0.17855650     1.83791778     2.83823823
Ti      3.82117964     3.85882488     8.11042975     0.17855650    -1.83791778    -2.83823823
Ti      0.82449862     0.39378651     5.85709239     0.17675107     1.83865543     2.84043447
Ti      5.16904657     3.85882647     3.45461394    -0.17675107    -1.83865543    -2.84043447
O       1.89699575     1.49741729     4.75169245     1.55935151    -1.65582216     2.33716527
O       4.09654944     2.75519559     4.56001393    -1.55935151     1.65582216    -2.33716527
O       1.09981678     1.49743443     0.09586924    -1.56022722    -1.65745070     2.33827778
O       4.89372852     2.75517845     9.21583683     1.56022722     1.65745070    -2.33827778
O       4.09653770     0.62888912     0.09583901    -1.55935151     1.65582216     2.33716527
O       1.89700749     3.62372370     9.21586706     1.55935151    -1.65582216    -2.33716527
O       4.89371672     0.62887204     4.75172263     1.56022722     1.65745070     2.33827778
O       1.09982842     3.62374089     4.55998370    -1.56022722    -1.65745070    -2.33827778
O       0.21777296     2.58668019     2.51532419     1.11741727    -0.34941588     1.40142761
O       5.77577223     1.66593269     6.79638219    -1.11741727     0.34941588    -1.40142761
O       3.21454042     1.66589304     2.14055862     1.12073117     0.35042889    -1.40112447
O       2.77900477     2.58671984     7.17114761    -1.12073117    -0.35042889     1.40112447
O       0.21776117     0.46037372     2.14052885     1.11741727    -0.34941588    -1.40142761
O       5.77578402     3.79223910     7.17117733    -1.11741727     0.34941588     1.40142761
O       2.77899303     0.46041338     6.79641186    -1.12073117    -0.35042889    -1.40112447
O       3.21455216     3.79219950     2.51529447     1.12073117     0.35042889     1.40112447
