# total energy = -19959.79774425 eV

CRYSTAL
PRIMVEC
        7.60600008     0.00000000     0.00000000
        0.00000000     7.60600008     0.00000000
       -1.89786986    -1.89786986     4.85670466
PRIMCOORD
24 1
Ti      3.89261499     6.65412801     1.27425199    -0.83763152     1.90918339     0.01716469
Ti      3.71586000     2.95253700     1.20196098     0.73844347    -1.88574803    -1.26422398
Ti      0.02853398     6.49847697     1.25478901     0.51893828     0.15646223    -0.24952694
Ti      0.01588601     2.72465899     1.11773602    -0.86418512     0.60055593     1.08088960
Ti      5.65859124     2.85703422     3.57857481     2.34043828     0.21136610    -0.55888502
Ti      5.72044222    -1.07941978     3.62168381    -1.23135910    -0.26003530     0.99907629
Ti      1.99880323     3.02160723     3.68019181    -3.03403244     0.00395076    -0.02907662
Ti      1.78500022    -0.88118876     3.63311282     1.21151094     0.54533170     0.56450776
O       4.00819699     4.86041499     0.76648102    -0.57434352    -1.04928404    -0.38982592
O       3.85436902     1.01708100     0.92646898    -0.18999868     0.40843686    -0.31534489
O       0.03166602     4.75562800     0.74898298    -0.04019947    -1.99275147    -0.59707800
O       0.17496399     0.69795601     0.72201399    -0.65887037     1.68940438     0.52253834
O       5.58859723     4.60078624     3.92661881    -0.47305333     2.15139734     0.87194702
O       5.74104922     0.85158320     4.07554479    -0.13893604     0.43914973    -0.04010357
O       1.90829820     4.95965324     4.08872083     0.33532828    -2.23795407     0.53305827
O       1.68736522     1.01258421     4.07881881     0.17697578     0.74002264     0.28860052
O       3.74530025     3.14331122     3.10869483     0.11992632    -0.66412982     0.68382165
O       3.75772824    -0.88235877     3.10791482     1.00150676     0.26550275     2.11031829
O      -0.00312278     3.27907922     3.27603481    -0.68794004    -1.79361483    -0.50923417
O      -0.05924780    -1.11953575     3.19598082     0.94134549     0.46598074     0.63137061
O       5.74726002     6.50286798     1.77879302    -0.15499953     0.43913944    -2.33034130
O       5.64777501     2.91582798     1.52904401     0.83914745    -0.89554230     0.56217937
O       1.93480802     6.45321898     1.77515599    -1.05180296     0.29542192    -1.56557795
O       1.74005497     2.66010598     1.75643200     1.71379079     0.45775449    -1.01625384
