# total energy = -4977.52987705 eV

CRYSTAL
PRIMVEC
        4.73206601     0.00000000     0.00000000
        0.00000000     2.81237324     0.00000000
        0.00000000    -0.00011227     6.41179419
PRIMCOORD
6 1
Ti      2.36603300     1.40613031     3.20589681     0.00000000     0.00000000     0.00000000
Ti      0.00000000     0.00000000     0.00000000     0.00000000     0.00000000     0.00000000
O       2.36603300     0.54806818     1.24956415     0.00000000     0.16886318     2.93183979
O       2.36603300     2.26419245     5.16222946     0.00000000    -0.16886318    -2.93183979
O       0.00000000     0.85801773     4.45546237     0.00000000    -0.16887937     2.93228459
O       0.00000000     1.95424290     1.95633124     0.00000000     0.16887937    -2.93228459
