# total energy = -19958.21555694 eV

CRYSTAL
PRIMVEC
        7.60600008     0.00000000     0.00000000
        0.00000000     7.60600008     0.00000000
       -1.89786986    -1.89786986     4.85670466
PRIMCOORD
24 1
Ti      3.65486200     6.60715897     1.12348299     3.06666541    -0.22159318     0.40138201
Ti      3.73309700     2.71673499     1.13306999     1.37148838     0.89780770     1.77418114
Ti      0.06446199     6.75050198     1.18500498    -3.83322390     0.95411180     0.45622263
Ti     -0.02045201     2.97337003     1.33458598    -1.55886711    -0.75702818    -1.99198554
Ti      5.77356722     2.93056821     3.67758181    -3.16233002    -1.25322505    -1.10052949
Ti      5.72716520    -0.86507076     3.71059781     0.23972743     1.48081096    -1.10188421
Ti      1.90623621     2.71905924     3.68894779     2.08728814    -2.24906458    -1.09375849
Ti      2.01035422    -1.07733180     3.52828683    -0.06449049     1.48546132     2.80079370
O       3.83170399     4.66957499     0.91217399    -0.79710090     1.13587189    -1.37112560
O       3.89137502     0.92557398     0.74312901    -0.50014429    -2.41624420    -1.58884387
O       7.30507900     4.78276902     0.71697898     1.63219243     1.99167906     1.80538354
O      -0.05129802     0.99712901     0.98843399     0.59989207    -0.61628183    -1.69919129
O       5.55776821     4.88191022     3.95297581     1.11228432    -0.66474200     1.32515992
O       5.30117820     1.05716925     4.30941680     1.62555229    -1.99568639    -1.46106308
O       1.85806224     4.48351320     3.91362984     0.02192920     4.36029433     0.77359072
O       2.36278521     0.88760620     3.97728182    -1.79054982    -0.67741729     0.79642547
O       3.84379622     2.80090322     3.08523180    -1.98115888     0.57253115     0.53289372
O       3.92353223    -0.88200978     2.97704479    -1.80073807    -1.03613490     1.16984852
O      -0.04287378     2.66225323     3.24332483     0.87507734     0.21139130     1.33779844
O       0.05643723    -0.76750979     3.26756781     0.52929418    -0.79590328     0.47059690
O       5.80437798     6.82588201     1.70568698     0.29316706    -0.51723184    -0.22486131
O       5.61231500     2.74654301     1.72586599     1.76645728     0.37865936    -0.09867975
O       1.90558299     6.89888598     1.73576298     0.15185224    -0.84956068    -2.29366373
O       1.85083601     2.71659698     1.54958000     0.11573568     0.58149402     0.38130965
