# total energy = -19075.90710274 eV

CRYSTAL
PRIMVEC
        7.60600008     0.00000000     0.00000000
        0.00000000     7.60600008     0.00000000
       -1.89786986    -1.89786986     4.85670466
PRIMCOORD
22 1
Ti      3.84991399     6.74599900     1.17129098     0.55184302    -0.44001439     0.90042689
Ti      3.78830802     2.89107503     1.20568602     0.05398779     0.25943032    -0.49227696
Ti      0.04416799     6.61272698     1.04460700    -0.70607378    -0.91139419     1.16504184
Ti     -0.04428700     2.77015501     1.16473098    -0.12427715     0.50142161    -0.32218480
Ti      5.63560822     2.78011423     3.52007680     0.02001296     0.13567151     1.31482562
Ti     -1.43242477    -1.04288379     3.74968681    -1.53953575     0.12875524    -1.00707603
Ti      1.87036720     2.92941122     3.63196683     0.11578530    -0.96809115     0.02310728
Ti      1.58749921    -0.88527279     3.78494483    -0.08187115     0.04937754     0.09509923
O       3.66786500     4.80769798     0.66156099    -0.03645209    -0.45561585     1.12403658
O       4.16402799     1.02834502     0.82462802    -0.96689558    -0.38966934     0.76877427
O      -0.14205599     4.74090502     0.65328202     1.09932827    -1.06654515     0.44918783
O      -0.29064600     0.85388099     0.75742600     1.02488144     0.96381823     0.85258352
O       5.44457322     4.74359720     4.04973280     1.31783870     0.63975961    -1.09868704
O       5.58070524     0.76210023     4.01156980     0.71443579     1.08541397    -0.25276010
O       2.01007322     4.85111925     4.22436679    -0.31256553     0.07903034    -2.08841428
O       1.98381021     0.93486120     4.03594784    -0.56021299     0.61266737     0.07873775
O       3.77432324     2.96841322     3.28569679    -0.54279813    -0.45028132    -0.91784663
O      -0.01943377     2.90302221     3.18927583     0.07142579    -0.00531756    -0.26486615
O       5.69611398     6.53118701     1.83945399     0.15614290     0.09630688     0.57620372
O       5.64831599     3.10395002     1.61295798     0.59792157    -0.67879180     0.13313100
O       1.98964799     6.60077699     1.97992801     0.14542216     0.27805360    -1.12169482
O       1.93417502     2.62661398     1.57437900    -0.99834327     0.53601479     0.08465103
