# total energy = -4965.23753037 eV

CRYSTAL
PRIMVEC
        4.46869915     0.00000000     0.00000000
       -0.00000676     2.68121949     0.00000000
       -2.23437474    -1.34065866     4.86660612
PRIMCOORD
6 1
Ti     -0.00019155     2.01100992     1.21665121    -0.01541865    -0.02111905    27.38894112
Ti      2.23450904    -0.67044919     3.64995431     0.01541865     0.02111905   -27.38894112
O       0.00004733     0.67029626     0.79273027     0.01388371     0.01662810   -17.06911105
O       2.23427007     0.67026442     4.07387530    -0.01388371    -0.01662810    17.06911105
O      -0.00001841    -0.67030518     3.22603333    -0.00172752    -0.00000823    -0.28049023
O       2.23433575     2.01086582     1.64057219     0.00172752     0.00000823     0.28049023
