# total energy = -39024.51440919 eV

CRYSTAL
PRIMVEC
        5.93200024     0.00000000     0.00000000
        0.00000000     9.29399984     0.00000000
        0.00000000     0.00000000     9.29399984
PRIMCOORD
46 1
Ti      4.51230902     7.33924400     7.10947000    -1.63723076    -0.47546297     0.91753887
Ti      4.45517401     6.64079898     2.11863399     0.55002885     1.88759228     0.50540374
Ti      4.29224399     1.94572702     7.16417100     1.39319930     0.74445137    -2.25755077
Ti      4.29164300     2.29773101     2.35655398     0.28542084     1.19392382     1.45770728
Ti      1.54489298     7.12015102     7.32155202     0.44235358     0.81257843    -1.49066292
Ti      1.63873801     7.06569000     1.68073801    -0.08874449     1.56793822     0.41018367
Ti      1.54018399     2.30324001     6.50352898    -0.76254449     1.07878875     1.65517321
Ti      1.08167799     2.32418199     3.82896598     0.49077415     0.37821379    -1.17652156
Ti      3.23979998     4.92739200     4.77176002     1.08645784    -1.69841481     0.30095725
Ti      2.71270800     4.58822299     8.94964600     2.43542438    -0.40302288     0.67790040
Ti      3.06834999     0.09046402     4.35080502     1.62298865    -1.46615412     2.98694704
Ti      2.88763998     0.30766498     0.08079002     1.04122055    -0.71975360     2.00366324
Ti      0.24841501     5.10115100     4.78442302    -2.51715927    -1.78412668    -0.44562351
Ti      5.76477700     4.74586198     9.00046300     0.13183311    -1.75156339    -0.73268137
Ti      0.16105102     8.40768600     4.03600398    -1.95214551    -0.09514576     0.54438527
Ti      0.05466099     0.47943200     0.10884102     0.49411119    -1.32298630    -0.82840923
O       4.47422598     5.32117899     6.08022898     0.37076941     1.56478656    -2.04726659
O       4.31139502     4.29791502     0.81293802    -0.58053834     0.97595590     3.31112264
O       4.15347302     0.95767498     5.56802202     0.25357823    -0.99454961    -0.08111345
O       4.57590099     0.87855600     1.21433801    -1.59010731     2.32906680    -0.43948371
O       1.55827100     5.83235199     5.71436001     1.45219406    -0.04330768     0.26604448
O       1.38738300     5.61432403     0.58377300    -0.01893618    -1.82253307     1.08739963
O       1.56856000     1.09794500     5.13018701    -1.24175690    -3.72992748     1.25657931
O       1.40775399     0.97115001     1.22129902     1.40591418     1.24560353    -0.75911206
O       4.68405000     8.69656100     8.55013099    -1.64872077    -1.64362047    -2.04268180
O       4.29250598     8.40945001     3.43329300     1.32130995    -1.41207943     0.79128429
O       4.51495601     3.54490601     8.09253099    -0.63876613    -0.07720049    -1.47145985
O       4.70327099     4.21291799     3.81253402    -1.43699395    -1.45527578    -1.17769604
O       1.50965803     8.48259098     8.83440702    -0.19703888    -1.72089192    -1.87718137
O       1.70508303     8.13893698     3.19035498     0.83150381     2.21239935     3.82538718
O       1.36805300     3.72659198     8.21649002    -1.12747672    -1.20999194    -0.56546756
O       1.45181202     4.09212302     3.68396199     1.20755350     1.18676227    -1.55110700
O       2.91700498     6.03474800     7.92309600     1.12652875     1.20504025     0.30349236
O       3.11357898     5.82762098     2.96757601    -1.09109354     1.54217087    -0.56546447
O       2.67638400     1.26169499     7.75365800    -0.10600997     0.36004019     0.59252251
O       2.89143799     1.56592200     3.39302600     0.55770025     2.73030508    -3.34352087
O       0.00560499     6.13825999     7.88332902    -0.88005937     0.86190943     0.39301075
O       0.01879802     6.36681799     3.37755101    -0.19318865     0.74219625    -0.03595509
O       0.08302098     1.46455498     7.62604701     0.42446769    -0.53496732     1.07004957
O       2.95404902     7.91721801     6.24498398    -0.48540697     0.57160041    -0.22724344
O       3.25252399     8.06080401     1.41561201    -0.41615017    -2.61840317    -1.89223596
O       2.95045400     3.25859799     5.69629998    -0.42196884    -0.44642286     1.47490539
O       5.77601699     7.71226898     5.97060801     2.01368283     1.86151897    -1.95555916
O       0.01303501     7.88860698     1.47583497    -0.48106824    -0.26333094    -0.72098465
O       0.29876300     3.04559198     5.32434802    -1.12770169     0.92532777     3.15573745
O       5.54627898     1.38268099     3.44002498    -0.29820797    -0.28903735    -1.30241362
