# total energy = -19077.75651725 eV

CRYSTAL
PRIMVEC
        7.60629642     0.00000000     0.00000000
       -0.00001693     7.60629642     0.00000000
       -1.90160393    -1.90160817     4.85366295
PRIMCOORD
22 1
Ti      3.80306235     6.66386617     1.15692579    -0.00013653    -0.00193064     0.00694841
Ti      3.80295912     2.84994708     1.20992446     0.00001723     0.00040186    -0.02486489
Ti     -0.00009137     6.66387213     1.15691798     0.00006505    -0.00194530     0.00689030
Ti     -0.00018350     2.84995208     1.20990803     0.00000874     0.00040598    -0.02473325
Ti      5.70489377     2.85037114     3.62414903    -0.00009025     0.00174424     0.00941693
Ti      5.70477432    -0.94359030     3.64969804    -0.00004757     0.00631515     0.01206079
Ti      1.90173665     2.85037470     3.62415872     0.00008099     0.00165990     0.00945189
Ti      1.90159955    -0.94359308     3.64971763    -0.00002803     0.00635500     0.01195281
O       3.80318337     4.75892072     0.77524860     0.00007585     0.00373839     0.00847976
O       3.80317680     0.93958022     0.83832555     0.00006505    -0.00749528     0.00192910
O       0.00004746     4.75891634     0.77523932     0.00003908     0.00378107     0.00848541
O       0.00005769     0.93959154     0.83831889     0.00000694    -0.00757627     0.00170464
O       5.70461428     4.76978833     4.00652317    -0.00000540    -0.02670966     0.00037281
O       5.70459846     0.93160318     4.04769526    -0.00002674     0.01649029    -0.02348986
O       1.90149147     4.76978829     4.00653556    -0.00000437    -0.02691946     0.00042577
O       1.90146711     0.93159516     4.04770533    -0.00004499     0.01677877    -0.02345078
O       3.80312830     2.85402232     3.21929018     0.00000489     0.00585235     0.00245566
O      -0.00001649     2.85402576     3.21929903    -0.00004139     0.00584541     0.00231014
O       5.70469523     6.65401228     1.75691466    -0.00004499    -0.00866745     0.00428809
O       5.70470175     2.85036308     1.61980033     0.00016841     0.01027979     0.00269400
O       1.90154612     6.65400639     1.75694976     0.00003394    -0.00868596     0.00398084
O       1.90155677     2.85037149     1.61979960    -0.00009590     0.01028210     0.00269092
