# total energy = -4987.71952270 eV

CRYSTAL
PRIMVEC
        3.64917980     0.00000000     0.00000000
        0.00000000     3.81181177     0.00000000
        0.00000000    -0.00006662     4.96329613
PRIMCOORD
6 1
Ti      1.82458974     1.90587252     2.48164801     0.00000000     0.00000000     0.00000000
Ti      0.00000000     0.00000000     0.00000000     0.00000000     0.00000000     0.00000000
O       1.82458974     0.74285298     0.96727329     0.00000000    -0.00796425     0.32980092
O       1.82458974     3.06889206     3.99602268     0.00000000     0.00796425    -0.32980092
O       0.00000000     1.16299289     3.44892239     0.00000000     0.00806504     0.32977753
O       0.00000000     2.64875215     1.51437363     0.00000000    -0.00806504    -0.32977753
