# total energy = -4987.90010555 eV

CRYSTAL
PRIMVEC
        4.07643613     0.00000000     0.00000000
        1.19601184     3.89703569     0.00000000
       -2.63626078    -1.94854504     5.26330751
PRIMCOORD
6 1
Ti      0.89688414     2.92292617     1.31582657     0.00046614    -0.00046614    -0.00000000
Ti      1.73930281    -0.97443570     3.94748015    -0.00046614     0.00046614     0.00000000
O       0.29904560     0.97425352     0.85734964    -0.00053556    -0.00099707    -1.31027785
O       2.33714116     0.97423686     4.40595708     0.00053556     0.00099707     1.31027785
O      -0.29901420    -0.97423032     3.48900322    -0.00099707    -0.00053556    -1.31027785
O       2.93520095     2.92272059     1.77430355     0.00099707     0.00053556     1.31027785
