# total energy = -4986.10196384 eV

CRYSTAL
PRIMVEC
        3.74378469     0.00000000     0.00000000
        1.76177454     3.30334289     0.00000000
       -2.75281479    -1.65169255     4.94426473
PRIMCOORD
6 1
Ti      1.32124257     2.47763439     1.23606585     0.00095259    -0.00095259     0.00000000
Ti      1.43150173    -0.82598417     3.70819827    -0.00095259     0.00095259     0.00000000
O       0.44048243     0.82583152     0.80538022     0.00020672     0.00015787    -2.94198717
O       2.31226172     0.82581869     4.13888395    -0.00020672    -0.00015787     2.94198717
O      -0.44044685    -0.82581013     3.27751258     0.00015787     0.00020672    -2.94198717
O       3.19319092     2.47746025     1.66675154    -0.00015787    -0.00020672     2.94198717
