# total energy = -19961.82817359 eV

CRYSTAL
PRIMVEC
        7.60600008     0.00000000     0.00000000
        0.00000000     7.60600008     0.00000000
       -1.89786986    -1.89786986     4.85670466
PRIMCOORD
24 1
Ti      3.81150699     6.58587599     1.20373002    -0.39515222     0.05060858     0.98359439
Ti      3.80338200     2.77655001     1.14731999    -1.45824258     0.49963752     0.67693135
Ti      0.02433300     6.74430399     1.26306503     0.29076051    -0.38215863    -0.69773929
Ti     -0.07397702     2.90912399     1.23947600     1.99644229     0.20028413    -0.73195169
Ti      5.66231421     2.92576423     3.61424580     0.53658943    -0.74788739     1.08026122
Ti      5.71400922    -0.92505078     3.63738079    -0.53433071     0.82128316     0.31749408
Ti      1.92387723     2.78737020     3.67522083    -0.33126594     0.00676406    -1.21139936
Ti      1.87557325    -1.05839980     3.70288082     0.61333020     0.39041136    -1.23107473
O       3.72910398     4.73691899     0.79526302     0.78749191    -0.03224602    -0.33183081
O       3.78004200     0.93148902     0.77664101     0.21997904    -1.06988116     0.16409326
O       0.03833201     4.77050798     0.74572298    -0.41896939     0.25503913    -0.20764443
O      -0.04347001     0.99795998     0.79852498     0.17194902    -0.09237926     0.30070631
O       5.68443821     4.82102425     4.06732979    -0.07492275    -0.99513993    -0.01149284
O       5.79897921     0.95577524     3.94054781    -0.22284376     0.60975405     0.77036630
O       1.93078824     4.67923422     3.98726882     0.19421272     0.44113025     0.87237794
O       1.81418525     0.83886522     4.05863880     0.30488513     1.46504186     0.02866241
O       3.80502123     2.74657222     3.23160979     0.34010308     0.07472400    -0.01782932
O       3.77523422    -0.91665078     3.22875282    -0.27184052    -0.24790766    -0.33909264
O       0.06282223     2.92316222     3.16865580    -0.51954352    -0.18703548     0.09893660
O       0.01419121    -0.98055280     3.19233383     0.50483038    -0.22443579     0.32064882
O       5.70797501     6.67171299     1.73327399    -0.39529286    -0.18584223    -1.45941140
O       5.74581701     2.86993000     1.61946903    -1.34508546     0.26922031    -0.11329776
O       1.91442301     6.67068199     1.55826401    -0.01327230     0.00588449     0.34928167
O       1.97071498     2.99844202     1.59733301     0.02018857    -0.92486960     0.38940940
