# total energy = -4975.89973728 eV

CRYSTAL
PRIMVEC
        4.31277027     0.00000000     0.00000000
       -0.00000700     2.87517985     0.00000000
       -2.15641055    -1.43763380     4.77782470
PRIMCOORD
6 1
Ti     -0.00018535     2.15648933     1.19445592    -0.00933851    -0.01376261    18.37482365
Ti      2.15653812    -0.71894358     3.58336812     0.00933851     0.01376261   -18.37482365
O       0.00004538     0.71878715     0.77826848     0.00774185     0.01377058    -9.19710424
O       2.15630729     0.71875855     3.99955561    -0.00774185    -0.01377058     9.19710424
O      -0.00001848    -0.71878980     3.16718073    -0.00147993    -0.00038001     0.04649070
O       2.15637110     2.15633545     1.61064341     0.00147993     0.00038001    -0.04649070
