# total energy = -19912.66311278 eV

CRYSTAL
PRIMVEC
        8.07029215     0.00000000     0.00000000
        0.00002701     4.13555580     0.00000000
        0.00000000     0.00000000    12.19292903
PRIMCOORD
24 1
Ti      2.92510889     2.45072662     4.52348971     0.23332256    -0.23061904     2.63784226
Ti      5.14521046     1.68482937     7.66943944    -0.23332256     0.23061904    -2.63784226
Ti      6.96011682     1.68483084     1.57292616     0.23336369     0.23050540    -2.63858274
Ti      1.11020259     2.45072533    10.62000318    -0.23336369    -0.23050540     2.63858274
Ti      2.92509544     0.38294878     1.57297505     0.23332256    -0.23061904    -2.63784226
Ti      5.14522397     3.75260733    10.61995428    -0.23332256     0.23061904     2.63784226
Ti      1.11018908     0.38294719     7.66939055    -0.23336369    -0.23050540    -2.63858274
Ti      6.96013027     3.75260892     4.52353860     0.23336369     0.23050540     2.63858274
O       2.55430803     1.45619956     6.22195836     1.50979090     1.02673238    -1.88635327
O       5.51601138     2.67935642     5.97097079    -1.50979090    -1.02673238     1.88635327
O       1.48090447     1.45621620     0.12553303    -1.51015497     1.02699694    -1.88768176
O       6.58941501     2.67933978    12.06739575     1.51015497    -1.02699694     1.88768176
O       5.51599788     0.61157852     0.12549348    -1.50979090    -1.02673238    -1.88635327
O       2.55432148     3.52397746    12.06743536     1.50979090     1.02673238     1.88635327
O       6.58940156     0.61156188     6.22199791     1.51015497    -1.02699694    -1.88768176
O       1.48091773     3.52399416     5.97093124    -1.51015497     1.02699694     1.88768176
O       0.29322893     2.51547951     3.29361431    -2.03544568     0.64065178     0.24119836
O       7.77709042     1.62007654     8.89931484     2.03544568    -0.64065178    -0.24119836
O       4.32838510     1.62003793     2.80288902    -2.03504459    -0.64058828    -0.24142025
O       3.74193425     2.51551811     9.39003995     2.03504459     0.64058828     0.24142025
O       0.29321548     0.44770155     2.80285008    -2.03544568     0.64065178    -0.24119836
O       7.77710393     3.68785444     9.39007888     2.03544568    -0.64065178     0.24119836
O       3.74192080     0.44774015     8.89935371     2.03504459     0.64058828    -0.24142025
O       4.32839861     3.68781583     3.29357537    -2.03504459    -0.64058828     0.24142025
