# total energy = -78964.34439768 eV

CRYSTAL
PRIMVEC
       10.35150501     0.00002646     0.00000000
        0.00002858    11.01713167     0.00000000
        0.00000000     0.00000000     9.26345890
PRIMCOORD
94 1
Ti      7.16715131     8.67030617     3.29831750    -0.16581385     0.46790315     0.22118540
Ti      7.03696403     3.27092138     3.42301782    -0.06961907     0.16080431    -0.00035995
Ti      1.86591267     8.75707410     3.43998419    -0.18588877    -0.03197836     0.21484146
Ti      1.84260648     3.35906147     3.51446264     0.00212090     0.11412720    -0.13021100
Ti      8.38668680     7.73935087     5.79656143    -0.04073066    -0.23381724    -0.12055650
Ti      8.49597146     2.23628674     5.82456787     0.07068711     0.01010572     0.01714695
Ti      3.30236787     7.74586895     5.82109563     0.24425026    -0.29737236    -0.10599248
Ti      3.28364741     2.19339463     5.77058193    -0.41743855     0.01881071     0.06914393
Ti      9.72872358     7.73929234     1.16504744     0.03955078    -0.23151533    -0.12195107
Ti      9.61896013     2.23640085     1.19280917    -0.06970006     0.01029727     0.01641907
Ti      4.46129380     7.74572602     1.18933541    -0.24548336    -0.29678229    -0.10596060
Ti      4.47964747     2.19343307     1.13890740     0.41947332     0.01883617     0.06795300
Ti      5.89778476     8.75692829     8.07169033     0.18991358    -0.03224987     0.21430744
Ti      5.92126660     3.35906846     8.14629497    -0.00407494     0.11391225    -0.12994103
Ti      0.59591558     8.67034155     7.92995686     0.17481091     0.47008628     0.22330991
Ti      0.72694145     3.27091649     8.05466646     0.06825459     0.16072280    -0.00056281
Ti      7.04604055     6.00705244     1.18053156    -0.01564285     0.21607585     0.00884126
Ti      7.07738730     0.52822370     1.18362102    -0.23617211    -0.00012341     0.05093383
Ti      1.88818158     6.02553100     1.19920343     0.12371382    -0.07934067     0.08133971
Ti      1.90648914     0.81627036     1.34250210    -0.30139845    -0.52858455    -0.53515090
Ti      8.46702020    10.50182412     8.07033836     0.04224350    -0.14782897     0.06381198
Ti      8.49831259     4.97989680     8.06184230     0.21078863    -0.04885046    -0.09395509
Ti      3.45191802    10.49498822     7.90574071     0.12295920    -0.19451997     0.24591274
Ti      3.28908986     4.98940939     8.05898010     0.01010958    -0.12910825     0.03779986
Ti      5.87559368     6.02538033     5.83096057    -0.12380226    -0.07879251     0.08145001
Ti      5.85660607     0.81633803     5.97431959     0.30428889    -0.52887226    -0.53722346
Ti      0.71797201     6.00689241     5.81223645     0.01587785     0.21650368     0.00938170
Ti      0.68627428     0.52809518     5.81535684     0.23526194    -0.00052142     0.05219676
Ti      9.64766709    10.50178314     3.43865691    -0.03730544    -0.14731244     0.06379295
Ti      9.61677511     4.97993046     3.43011988    -0.21066522    -0.05008948    -0.09252967
Ti      4.31184051    10.49511521     3.27391004    -0.12952220    -0.19474777     0.24450043
Ti      4.47452252     4.98944873     3.42720118    -0.01024534    -0.12939904     0.03836782
O       6.76847877     7.51209529     4.76782940     0.03348657    -0.12464944    -0.18262424
O       6.83633515     1.84992332     4.68712202    -0.03349120     0.15242199    -0.00701680
O       1.64472599     7.44434942     4.75227004     0.00450457    -0.05394871    -0.02407402
O       1.64230177     1.91911654     4.72191215     0.10458352    -0.09131045     0.04325703
O       8.61841118     9.14817808     4.58020224     0.05506431    -0.10676973    -0.18839200
O       8.70411595     3.57320514     4.53447859     0.01961624     0.03193157    -0.10064793
O       3.57208740     9.10830597     4.57473313    -0.28330199     0.13650866    -0.25417627
O       3.55642229     3.54877502     4.53537565     0.10552608     0.06190679    -0.02590130
O       6.11899305     7.44442422     0.12053960    -0.00396541    -0.05471284    -0.02389147
O       6.12141174     1.91916798     0.09023266    -0.10570683    -0.09155342     0.04392963
O       0.99520445     7.51215148     0.13610727    -0.03380025    -0.12530867    -0.18264301
O       0.92738908     1.84998483     0.05537702     0.03229281     0.15245028    -0.00761407
O       9.49677670     9.14822802     9.21196420    -0.05620871    -0.10833013    -0.18772505
O       9.41112481     3.57321427     9.16618730    -0.02063697     0.03198299    -0.10014913
O       4.19160076     9.10834453     9.20648965     0.28393654     0.13580880    -0.25460333
O       4.20723393     3.54875030     9.16709988    -0.10496918     0.06150775    -0.02544622
O       8.71958816     6.33217962     0.08200338    -0.05948249     0.02290520    -0.04903713
O       8.69028739     0.82381408     0.09922235    -0.00719781     0.07620624    -0.02456330
O       3.54801699     6.33772659     0.10802373     0.01677080     0.04765207    -0.02665104
O       3.42003241     0.71056688     0.07808683    -0.25355020    -0.01216698     0.14081346
O       6.81584743    10.19251450     9.17382051     0.08279547    -0.06082692    -0.00380163
O       6.81129966     4.67079436     9.16831499     0.11597582     0.11170625     0.21471239
O       1.63802552     4.68619082     9.16844390     0.03154899    -0.02439978    -0.02052384
O       9.39566335     6.33219202     4.71375604     0.05862323     0.02265297    -0.04989228
O       9.42493632     0.82384008     4.73094410     0.00573073     0.07558969    -0.02515414
O       4.21570411     6.33772418     4.73975280    -0.01651832     0.04754871    -0.02621164
O       4.34349674     0.71066680     4.70978404     0.25384897    -0.01228242     0.14104563
O       6.12576119     4.68626323     4.53668760    -0.03136130    -0.02504872    -0.02078558
O       0.94794269    10.19255355     4.54203927    -0.08391492    -0.06133883    -0.00367771
O       0.95245661     4.67082878     4.53656944    -0.11589586     0.11061558     0.21379888
O       5.40521877     8.95580508     2.65163213     0.00480925     0.06816100    -0.05826148
O       5.35967045     3.34711209     2.48769269     0.03248950     0.00558290    -0.07871975
O       0.16698010     8.85035449     2.52809979    -0.01766014    -0.03925330     0.09142615
O       0.20488631     3.33815591     2.48766233     0.01822836     0.03488011     0.01404491
O      10.17500653     7.62125633     6.71933871    -0.38438546    -0.14829100     0.01916321
O      10.16163456     2.15279759     6.75901928     0.05703120     0.06204228     0.07961835
O       4.96800780     7.65471643     6.78439816    -0.00000771    -0.08469011     0.14457601
O       4.99429442     2.15062870     6.80845908    -0.32060126     0.37021791     0.24619402
O       7.94014592     7.62129944     2.08773735     0.38339430    -0.14699105     0.02004433
O       7.95359259     2.15273939     2.12734060    -0.05831418     0.06187722     0.07997059
O       2.79573607     7.65462377     2.15269085    -0.00018795    -0.08472431     0.14442535
O       2.76927035     2.15046220     2.17675641     0.32008832     0.36905603     0.24510233
O       7.59671557     8.85040627     7.15984607     0.01718912    -0.04000895     0.09048281
O       7.55886107     3.33824304     7.11936696    -0.01923803     0.03461297     0.01428017
O       2.35824490     8.95582625     7.28343962    -0.00465370     0.06884414    -0.05795731
O       2.40402706     3.34717492     7.11935792    -0.03223239     0.00607475    -0.07868504
O       5.37088918     6.12431936     2.14325157     0.09529283     0.09777292     0.07754244
O       5.35304896     0.60981418     2.13061357    -0.14801126    -0.18941118    -0.02472245
O       0.19120950     6.10941486     2.12570147     0.12754579    -0.05225075     0.00955191
O       0.14038447     0.56317402     2.10230071     0.26242925     0.05324679     0.11454089
O      10.24546278    10.42162480     7.21766887    -0.01210759    -0.07797876    -0.07103061
O      10.16272340     4.91193625     7.12464106     0.02088379    -0.10895825    -0.03266999
O       5.07395926    10.32498378     7.02682519    -0.17433269     0.53695298    -0.04927213
O       4.98622671     4.89986491     7.13436218    -0.04430321     0.01079992     0.00228185
O       7.57252883     6.10948593     6.75747547    -0.12783298    -0.05241684     0.00945755
O       7.62320109     0.56328503     6.73402431    -0.26472319     0.05330644     0.11420716
O       2.39284450     6.12433219     6.77503741    -0.09470379     0.09767907     0.07772499
O       2.41058165     0.60992416     6.76242491     0.14797527    -0.19042523    -0.02464506
O       7.86968697    10.42157494     2.58585090     0.01095316    -0.07815128    -0.07021994
O       7.95255475     4.91186815     2.49282467    -0.02115402    -0.10898550    -0.03267436
O       2.68960909    10.32493772     2.39495616     0.17650578     0.53684088    -0.04805754
O       2.77749285     4.89977341     2.50258006     0.04452818     0.01146044     0.00168484
