# total energy = -4986.93452290 eV

CRYSTAL
PRIMVEC
        3.20767286     0.00000000     0.00000000
        1.70680870     4.72725096     0.00000000
       -0.00001109    -0.00006659     5.10711171
PRIMCOORD
6 1
Ti      2.45723523     2.36359213     2.55355586     0.00000000     0.00000000     0.00000000
Ti      0.00000000     0.00000000     0.00000000     0.00000000     0.00000000     0.00000000
O       1.93646611     0.92125860     0.99530087    -0.01932699     0.25243846    -0.11596477
O       2.97800434     3.80592565     4.11181090     0.01932699    -0.25243846     0.11596477
O       0.52076445     1.44230661     3.54885774     0.01938895    -0.25195458    -0.11590203
O       1.18603325     3.28487762     1.55825403    -0.01938895     0.25195458     0.11590203
