# total energy = -19072.86719918 eV

CRYSTAL
PRIMVEC
        5.93400000     0.00000000     0.00000000
        0.00000000     9.29699974     0.00000000
        0.00000000     0.00000000     4.64899994
PRIMCOORD
22 1
Ti      4.64717100     6.84019001     2.26677499    -2.27135991     0.02450391    -0.34716462
Ti      4.27506102     2.53533102     2.12694800     0.96546862    -3.68825142     2.34530641
Ti      1.62924198     7.08414199     2.50070901     0.95283370     0.92395249     0.78654909
Ti      1.53546103     2.43849798     2.13036098    -1.20199015    -1.40479421     0.61187367
Ti      2.96684802     4.69186002     4.62217600    -0.75851197     0.95361635     0.70354073
Ti      2.97471599     0.09850201     4.64620499    -0.30382300     0.61166104     0.49799716
Ti      5.79794398     4.42686102     4.56252799     0.51379685     0.87720596    -1.46697945
Ti      5.84343999     8.98933397     0.19284198    -0.02016594     0.65275551     0.32796798
O       4.47248001     5.51877102     0.78409098     0.47286847     1.94614095     1.44656900
O       4.76814399     0.97664101     1.00914901    -1.49323633     0.41227860    -0.35674918
O       1.51141902     0.77447202     1.03704601    -1.20282653     1.22170563    -0.16158849
O       4.25758801     8.30268199     3.92459598     2.03894264    -0.22673770    -0.98763720
O       4.21903798     3.66072100     3.89591198     1.20638622    -1.94282346    -1.59787179
O       1.35510398     8.54065601     3.76864199     1.20379789    -0.61810731    -1.52365018
O       1.51195100     3.92835203     3.74747998    -1.25613168    -1.41520975     0.24498303
O       2.91084101     5.98178100     3.28940701     0.58514139     1.05322503    -1.13211165
O       2.81439100     1.43605000     3.00316001     0.65050374    -0.15003010     1.92572587
O       0.11988003     6.06554299     3.21924901     0.15341984    -0.77590549     0.87289036
O       3.26329799     8.02657402     1.59052499    -1.48245030    -0.82492050    -0.22460831
O       2.94680099     3.55236799     1.67322603    -1.72939456     2.21681882    -2.31199596
O       0.21313497     7.52414102     1.25168602    -0.15788148     0.21027184     0.19199463
O       5.67853498     3.36569802     1.42401497     3.13461223    -0.05735619     0.15495890
