# total energy = -19956.83096396 eV

CRYSTAL
PRIMVEC
        5.93400000     0.00000000     0.00000000
        0.00000000     9.29699974     0.00000000
        0.00000000     0.00000000     4.64899994
PRIMCOORD
24 1
Ti      4.43769301     6.62549798     2.19156700     0.04034165     2.87326721     0.80062614
Ti      4.43226302     2.52359402     2.28429700     0.23764484    -5.79386871     0.35292698
Ti      1.44129901     6.81569497     2.00065900    -0.14916672     2.26895593     1.08742457
Ti      1.54350002     2.54414700     2.31835998    -0.14549672    -4.54257610     0.71077325
Ti      3.04037101     4.70151698     4.45639699    -1.98104626    -2.57205465     0.26288383
Ti      2.98070500     9.13714302     0.34509501     0.37660607     1.91341363    -1.60690999
Ti      5.87167398     4.65738201     0.00036402     2.52565008    -2.51328873    -0.18894684
Ti      0.05797698     9.27761799     0.25497601    -0.26765348     2.10611582    -1.72161003
O       4.42898900     5.79765198     0.52606601    -0.64732457     0.29665888     0.77988813
O       4.33992201     0.94635398     1.05489500     1.05592726     1.56235224     0.71169242
O       1.48124401     5.75175400     0.54939600     0.38508943    -0.38779681     0.13526296
O       1.57617899     0.83171497     1.13566301    -1.01963536     1.80727228     0.02512046
O       4.51077398     8.49431501     4.12275201    -0.39166169    -1.74210584    -1.96822777
O       4.57075400     3.74878001     3.69027100    -1.20015772     1.57723611     1.75313794
O       1.49783298     8.40252398     4.12454401    -0.34721938    -1.35114169    -1.58644143
O       1.33594300     3.58234398     3.84201702     0.73387950     3.01162835     1.35787259
O       2.84998399     5.76932899     2.88586401     0.68618784     0.09185758     0.33356425
O       2.84197399     1.56803099     3.21199298     0.98889369     1.32615570    -0.31448820
O       5.90186503     5.88266298     3.03452699     0.26552949     0.35423747    -0.68551832
O       0.05978100     1.56075898     3.16597499    -0.71369479    -0.05838849     0.33059411
O       2.94560198     7.97912503     1.79336201     0.37444918    -2.21345993     0.71611909
O       3.09993298     3.54820601     1.39599700    -1.07734276     0.60997748    -0.97656525
O       5.86684402     7.84673800     1.47490902    -0.31475405    -1.60573268     2.13816206
O       5.87741503     3.27340501     1.44240298     0.58495421     2.98128495    -2.44734119
