# total energy = -19959.10025154 eV

CRYSTAL
PRIMVEC
        7.60600008     0.00000000     0.00000000
        0.00000000     7.60600008     0.00000000
       -1.89786986    -1.89786986     4.85670466
PRIMCOORD
24 1
Ti      3.65430600     6.76198502     1.30854897     0.62537145    -1.22810794     1.29722976
Ti      3.77602100     3.03506902     1.28745301     0.67874063     0.28994650    -1.57503524
Ti      0.09231402     6.54823800     1.21066801    -2.23533077    -1.09445680    -1.70837681
Ti      0.06209001     2.65879299     1.01793700    -0.88477915     1.95467445     0.84563049
Ti      5.81492221     2.78670222     3.51010080    -0.16992864    -0.70024123     1.58913106
Ti      5.69487824    -1.15399477     3.51262784    -1.03074895     0.77274020     0.07906942
Ti      1.95468223     3.03138325     3.61759480    -0.29266081    -2.20577773     0.34846225
Ti      1.73802722    -0.92679077     3.77843780     1.53975918     1.41938703    -0.30165788
O       3.54128702     4.85109200     1.10666902     0.96660222     0.07668241    -1.90939113
O       3.77415401     0.97947698     0.96055799    -0.58538641     0.63385070    -1.33321081
O       0.25488801     4.50753102     0.84448699    -0.95381792     1.73529859    -0.91663821
O       0.27870898     0.77254402     0.72403201    -0.61892544     1.40339990    -0.18466107
O       5.74442321     4.68374720     3.95544384    -0.13185213    -0.34833421     0.93194939
O       5.58607824     0.85204422     3.95175383     0.07515132    -0.39485603     0.76588769
O       1.70404123     4.81021723     4.15952782     0.13257513     0.62256021     0.22551206
O       2.12411420     1.10597521     4.01291079    -1.07461122    -0.40410403     1.03257958
O       3.93488424     3.02299722     3.09128680    -2.23922291     0.14509280     2.96888992
O       3.64717623    -1.07214676     3.24281682     0.53534681     0.36803813     0.21992299
O      -0.03672876     2.97242523     3.21375683     1.85591782    -0.90942112    -0.08732832
O      -0.06581679    -0.76058376     3.10458180     0.90031710    -0.22883212     1.90631429
O       5.74526698     6.48643999     1.64420102    -1.34570330     0.16113598    -0.74191549
O       5.66604798     2.84013298     1.68066398     2.24789807    -0.60119690    -2.56475400
O       1.75321000     6.64542002     1.71290998     3.03795312     0.01994637     0.53160586
O       1.93857201     3.03018699     1.81193100    -1.03266546    -1.48742538    -1.41921528
