# total energy = -19077.19612930 eV

CRYSTAL
PRIMVEC
        5.17575250     0.00001323     0.00000000
        0.00001429     5.50856584     0.00000000
        0.00000000     0.00000000     9.26345890
PRIMCOORD
22 1
Ti      1.92781461     3.42897138     3.29807280    -0.05518206     0.00730142    -0.01531530
Ti      3.39901293     2.24912304     5.92599870    -0.00652932     0.08924894    -0.03237097
Ti      4.47718036     2.25268020     1.14024086     0.05145551    -0.03066967    -0.06521220
Ti      0.75642157     3.28010874     8.10256018    -0.01809337    -0.00881117    -0.05381475
Ti      1.82449587     0.62800480     1.23628060    -0.04069569    -0.06055619    -0.05198387
Ti      3.20254076     4.98599263     8.13740865     0.02855057    -0.02271005     0.03146492
Ti      0.76513070     0.56002791     5.79578162     0.05419373     0.05170773     0.02876268
Ti      4.48532177     4.95263890     3.49689173    -0.13365139    -0.04928498    -0.05116112
O       3.44165736     3.48757148     4.53283717     0.06022786    -0.00388057    -0.01427194
O       0.94446831     1.92533153     0.12056371    -0.00086363     0.04780531     0.06517080
O       4.16833792     3.61039097     9.12385636    -0.08842901     0.07462013     0.04310250
O       3.55601179     0.83643425     0.07081020     0.01124241    -0.03415609     0.00501854
O       1.58449160     4.70823200     9.13762095    -0.04466471     0.07462193    -0.02226139
O       4.24851028     0.81899097     4.72788978     0.12737584    -0.04492207     0.01106886
O       0.93049823     4.61191251     4.57657700     0.02960086    -0.00729397     0.10476067
O       0.16885366     3.30685709     2.50907169     0.02474559    -0.05027948    -0.03241160
O       5.09674360     2.06752800     6.77546703     0.00201369    -0.08015854     0.02874700
O       2.74055899     2.09180885     2.16403549    -0.00217901     0.06487590     0.03531643
O       2.36423631     3.38587993     7.06917180    -0.03902345     0.02022816     0.00317634
O       0.19489975     0.52901266     2.18839623     0.02138464     0.03601603    -0.02520145
O       2.42492683     0.65289439     6.69816965     0.03039971    -0.02407299     0.00235025
O       2.78120689     4.88065431     2.47271391    -0.01187927    -0.04963002     0.00506585
