# total energy = -19960.51487379 eV

CRYSTAL
PRIMVEC
        5.93400000     0.00000000     0.00000000
        0.00000000     9.29699974     0.00000000
        0.00000000     0.00000000     4.64899994
PRIMCOORD
24 1
Ti      4.44654303     7.06955601     2.38985701     0.39000513    -1.82825634    -1.08953776
Ti      4.47962401     2.20378501     2.22338600    -0.64143983     1.55362951     1.21247511
Ti      1.44638197     6.99543902     2.44242299    -0.38071316    -1.89788570    -1.31125024
Ti      1.51032701     2.37292101     2.26669101     0.60993634     0.80867755     0.26344407
Ti      2.98559000     4.64487702     4.58361200    -0.91456282     0.19056741     0.60846927
Ti      2.98520201     9.22247301     0.02717098    -1.77752563     0.50380734     1.01571237
Ti      5.85474100     4.62251198     0.08144900     0.83195273     0.79083434    -0.21665357
Ti      0.00585900     0.00732201     4.59619901     1.16518505     0.98778015     0.72973180
O       4.43310499     5.63136300     0.88134201     0.25492677     0.01337745    -0.13355883
O       4.46832200     0.88348899     0.95323497    -0.47544343    -0.65206131    -1.00833690
O       1.52318898     5.66374098     0.86380402    -0.34815269    -0.58387280     0.17324151
O       1.53555099     0.96660199     0.73123199    -0.10724898     0.21627562     0.89188645
O       4.43738699     8.39535199     3.83310298    -0.02089716    -0.25882071    -0.82185523
O       4.49670199     3.63871898     3.87413797    -0.16855439     0.26095318    -0.71451678
O       1.38702802     8.39609701     3.80860202     1.63426242    -0.93412069    -0.32136307
O       1.47289301     3.74493099     3.78305101    -0.04546946    -0.21469774    -0.58572297
O       3.01909798     6.03255900     3.18754298    -0.12685185     0.62202208     0.07268614
O       2.92605899     1.54147999     3.13918100     0.63181541    -1.69062128     0.88971027
O       5.83006102     6.01128698     3.16484900     0.52892960     0.62739286     0.10823860
O       0.12784002     1.28839499     3.12031101    -1.10669937     0.46846365     0.09011026
O       2.90213203     7.81710498     1.39525102     0.51344846     1.53215257    -0.12956719
O       3.01425902     3.25729500     1.38901900    -0.07669269    -0.22560667     0.30716081
O       0.08272898     7.96745402     1.55497899    -0.81789059     0.28440397    -0.63917185
O       5.86758101     3.28919798     1.44167298     0.44768013    -0.57439469     0.60866776
