# total energy = -19073.61165590 eV

CRYSTAL
PRIMVEC
        7.60600008     0.00000000     0.00000000
        0.00000000     7.60600008     0.00000000
       -1.89786986    -1.89786986     4.85670466
PRIMCOORD
22 1
Ti      3.84869900     6.61580499     1.21445999     1.98891281    -1.33048930    -1.07810921
Ti      3.84902201     2.70674603     1.24469400    -0.49999542     1.78530091     0.04603151
Ti      0.39305101     6.77356299     0.95296901    -1.91704197     0.16235108     0.31170806
Ti     -0.06003701     2.90900699     1.15356201     0.63024961    -0.16838829     0.58294926
Ti      5.71769023     2.82962622     3.70402680    -0.40536259     0.77961430    -1.35681844
Ti      6.11695923    -0.79920778     3.66557583    -1.45948622    -1.41883192    -3.03573605
Ti      1.80870625     2.76779922     3.70638281     0.38134282    -0.05977071    -0.92481818
Ti      1.15108921    -1.12218375     3.96237283     3.30990445     0.55600589    -1.90928109
O       3.96794401     4.79317000     0.70384400    -0.52092421     0.17687654     1.43674044
O       4.14732102     0.85118902     0.69722601    -1.37060675     0.69680058     1.04282440
O       0.15297498     4.81295297     0.75355899    -0.04932689    -0.30359032     0.03194134
O      -0.20920202     1.01833198     0.54503002     0.39615495     0.69402456     2.35749679
O       5.60540125     4.77375925     3.97792879     0.88630124     0.61811811    -0.75156767
O       5.37433421     1.00664923     3.87046681     0.81545138    -0.34678538     0.70087758
O       1.80889723     4.69500021     4.01474481    -1.45451962     2.03752108     0.91767694
O       1.84529224     0.98241921     4.14063883    -0.80488877    -2.54892911    -0.10304574
O       3.53654924     2.88679022     3.14947079     3.15075774    -0.35846951    -0.00689364
O      -0.01279879     2.63709122     3.07702881    -0.25084874     0.22017984     0.59105776
O       5.78579301     6.58612598     1.65573301    -0.80407733     0.43854860     1.88304683
O       5.73280898     3.08504299     1.77248698    -1.04079117    -0.35701735    -1.22912198
O       1.99072698     6.63500799     1.90041298     0.36243749     0.17893882     1.04244465
O       1.95472800     3.05247102     1.45117097    -1.34364204    -1.45200842    -0.54940381
