# total energy = -19919.38580316 eV

CRYSTAL
PRIMVEC
        6.31313131     0.00000000     0.00000000
        2.87792136     6.07154121     0.00000000
        0.00000000     0.00000000    11.61134043
PRIMCOORD
24 1
Ti      3.99365992     3.59798967     4.30772446     0.17620908    -2.53404473     0.58636626
Ti      5.19739253     2.47355147     7.30361604    -0.17620908     2.53404473    -0.58636626
Ti      6.61713662     2.47355352     1.49789941    -0.92232807    -1.22951459     0.46437020
Ti      2.57391595     3.59798785    10.11344127     0.92232807     1.22951459    -0.46437020
Ti      2.55469939     0.56221916     1.49794595     0.17620908    -2.53404473    -0.58636626
Ti      6.63635310     5.50932216    10.11339473    -0.17620908     2.53404473     0.58636626
Ti      1.13495526     0.56221692     7.30356950     0.92232807     1.22951459     0.46437020
Ti      8.05609730     5.50932439     4.30777105    -0.92232807    -1.22951459    -0.46437020
O       3.01151089     2.13789285     5.92517815     1.80414042     2.10215555    -0.93275389
O       6.17954157     3.93364828     5.68616241    -1.80414042    -2.10215555     0.93275389
O       2.17183327     2.13791737     0.11954528     0.11940130    -1.07445644     1.70093321
O       7.01921928     3.93362387    11.49179496    -0.11940130     1.07445644    -1.70093321
O       4.74058101     0.89787765     0.11950756    -1.80414042    -2.10215555    -0.93275389
O       4.45047146     5.17366355    11.49183262     1.80414042     2.10215555     0.93275389
O       5.58025871     0.89785317     5.92521581    -0.11940130     1.07445644     1.70093321
O       3.61079370     5.17368804     5.68612469     0.11940130    -1.07445644    -1.70093321
O       1.97988553     3.69305558     3.13651274     0.66423832     2.91969441     2.73455357
O       7.21116687     2.37848557     8.47482782    -0.66423832    -2.91969441    -2.73455357
O       4.51332836     2.37842906     2.66919444     0.75247707     2.04258384     1.61280605
O       4.67772409     3.69311207     8.94214586    -0.75247707    -2.04258384    -1.61280605
O       0.54092496     0.65728489     2.66915735     0.66423832     2.91969441    -2.73455357
O       8.65012744     5.41425626     8.94218295    -0.66423832    -2.91969441     2.73455357
O       3.23876352     0.65734137     8.47486478    -0.75247707    -2.04258384     1.61280605
O       5.95228893     5.41419976     3.13647565     0.75247707     2.04258384    -1.61280605
