# total energy = -19957.26821083 eV

CRYSTAL
PRIMVEC
        5.93400000     0.00000000     0.00000000
        0.00000000     9.29699974     0.00000000
        0.00000000     0.00000000     4.64899994
PRIMCOORD
24 1
Ti      4.46705902     7.01351302     2.22007102    -1.30070666    -0.95139003     0.03060231
Ti      4.48302699     2.12328397     2.48188300    -3.86031383     3.90816464    -0.60549348
Ti      1.42735302     6.97685099     2.43205303     1.20911570    -0.55703279     0.64961542
Ti      1.43748698     2.34946402     2.05382703     1.72668179     2.68909363     0.75407990
Ti      2.92043097     4.46760301     0.07296100    -0.28302920     2.89668714    -0.95911234
Ti      3.16615702     0.06011999     4.60240800    -2.96958386    -4.26363419     0.09579703
Ti      0.00094802     4.62752598     0.08078298    -0.02387399     3.15953317    -1.26472071
Ti      0.05253799     0.39589697     4.51400302     0.15739297    -7.26044681     0.65170984
O       4.40636000     5.50672499     1.09310700     0.48192544    -0.14140995    -1.14184431
O       4.46510201     0.98116299     0.95535602     0.03712777    -0.21580768    -0.80319981
O       1.47450801     5.44480098     0.93559199    -0.19119707    -0.39019719     0.25249425
O       1.37651798     1.04260798     0.68927300     2.95849340     1.70631685     2.43331479
O       4.34208100     8.23288600     3.88006000     0.65923315     2.15855041    -0.00099656
O       4.37909801     3.69241401     3.84986700     0.77564889    -1.55040226    -1.46066276
O       1.42437302     8.40478002     3.75263401    -0.50609099     1.94265145     1.43712867
O       1.41783799     3.64130300     3.82369198     0.49187124    -0.95646127    -1.10469031
O       2.90481300     6.18028597     3.24257900     1.23096572    -1.55764249     1.13086595
O       2.83246700     1.30153600     3.20062599     1.19255522     1.12744227    -1.26289780
O       0.05337499     6.02974701     3.36453298    -1.27898494    -0.40199830    -0.22140883
O       0.05014002     1.31323902     3.00594898     1.24491421     0.76922473    -0.78958710
O       2.80733400     7.80492300     1.41477199     2.18655950     1.89404498    -0.84015558
O       3.17328398     3.30905298     1.49981702    -1.92745057    -2.46443929     1.19770849
O       0.10356798     7.91700200     1.57396502    -2.55378207     0.81079717    -1.10279515
O       5.85629900     3.20688298     1.29664100     0.54252765    -2.35164418     2.92424809
