# total energy = -19961.28038533 eV

CRYSTAL
PRIMVEC
        7.60600008     0.00000000     0.00000000
        0.00000000     7.60600008     0.00000000
       -1.89786986    -1.89786986     4.85670466
PRIMCOORD
24 1
Ti      3.78722500     6.76925401     1.21980098     0.85760206    -0.64001595     0.37273271
Ti      3.81381399     2.91409101     1.25032598     0.19959430     0.37984541    -1.67395513
Ti      0.00099898     6.52184698     1.23226098    -0.87680178     0.81038913     0.28023287
Ti      0.02343800     2.78571001     1.19586698    -0.11294295    -0.88512573    -0.32420312
Ti      5.67440025     2.90046120     3.63507982     0.12704391    -1.09138870    -0.88805113
Ti      5.64310322    -1.05044478     3.63484079    -0.33902656     1.31757182     0.01116862
Ti      1.93009321     3.01415223     3.62040082    -0.31562128    -1.65079977     1.06530896
Ti      1.88521322    -0.92007477     3.61325682     0.44964831     1.59393671     0.72356501
O       3.92375998     4.80692199     0.74603398    -0.73651566     0.13537943     0.31594216
O       3.96405699     1.03346602     0.76823598    -0.82007834    -1.32220546     0.08786645
O       0.09176098     4.64253499     0.69411402    -0.06926015     1.09366439     0.66026699
O      -0.02961699     0.84894398     0.74235800     0.44397646    -0.20756703     1.18499643
O       5.30132521     4.74530624     4.09381480     0.97528175    -1.42482337     0.13925100
O       5.71506122     0.87508724     4.05907082     0.05718598     0.50419840     0.00922435
O       2.08720425     4.86402022     4.06193981    -0.53618962    -0.38078540     0.12437845
O       1.94443921     1.03297622     4.10541383    -0.71716244    -0.74779483    -0.52038710
O       3.77312423     2.81905723     3.18463383     1.21529252     0.21108019     0.56978932
O       3.76869824    -0.82034576     3.20204281    -0.35190136     0.29803493    -0.34949815
O       0.05127024     3.04559325     3.19831079    -1.25204260     0.11023866     0.16068732
O      -0.06376575    -1.05094978     3.20434679     0.74446397    -0.03588979    -0.11225852
O       5.62112702     6.43642300     1.69846799     1.11896277     0.38829020    -0.62993414
O       5.69571302     2.74193298     1.63506002     1.06787955     0.46999243     0.50890069
O       1.90021698     6.42773402     1.65419099    -0.47865217     0.76664308    -0.67572370
O       1.93255902     2.69954001     1.69538998    -0.65073642     0.30713098    -1.04029958
