# total energy = -19517.62018702 eV

CRYSTAL
PRIMVEC
        5.17600016     0.00000000     0.00000000
        0.00000000     5.50899976     0.00000000
        0.00000000     0.00000000     9.26300011
PRIMCOORD
23 1
Ti      1.86754901     3.17037102     3.45921999    -0.95875547     0.66753833     2.93261832
Ti      3.39247200     2.23806099     5.80120202     0.98991622    -0.63347917    -1.18760328
Ti      4.40010000     2.13185501     1.47114800     0.52121114     0.05602924    -2.99929991
Ti      0.89564599     3.43614500     7.68653398    -0.23472921    -0.73909036     1.38977382
Ti      1.96387398     0.39385599     1.29602298     1.41496910    -1.46606953    -1.27974933
Ti      3.15219701     5.15267699     7.94635102     0.12883648    -0.40599020     0.87386070
Ti      0.73932401     0.49233598     5.98042001    -0.73874686    -1.01319166    -2.32769332
Ti      4.44771002     4.86482102     3.32153003     0.86661018     1.29840655     3.42689843
O       1.74850001     1.91519301     4.88397999    -0.43349355     0.08661150    -1.87703019
O       3.50583902     3.53786700     4.44166698     0.23635466     0.28729646     0.15031137
O       5.17522301     2.82112102     9.19341901    -0.44099835    -0.72454820     1.04771181
O       3.52332098     0.83318402     0.14327998    -0.87603019    -0.23919187     0.57214086
O       1.72743801     4.53933701     9.13047301     0.70537727     1.53867623     0.86483406
O       4.29553103     0.71931598     4.90806899    -0.57044598    -0.13597284    -1.54317335
O       0.84798897     4.60893800     4.53545401     0.65963347     0.09501901     0.27828911
O       0.12854700     3.39186102     2.56947898     0.19656605    -0.47455743    -0.82743633
O       0.02347801     2.07651698     6.63040801    -0.56584808     1.09259841     1.17274204
O       2.63589099     2.09254502     2.18437500    -0.00188025    -0.71527345    -0.96916304
O       2.83434601     3.33533102     7.18254599    -1.36247744     0.84431485     0.60768997
O       0.24452598     0.69218400     2.01005999    -0.26065494    -0.56896503     0.56569278
O       4.91728202     4.80122699     7.27397200     0.54044429     0.95916247    -0.63572940
O       2.41150401     0.86235100     6.85024998     0.13550002    -0.78535506     0.83602330
O       2.69455500     4.73409599     2.53862901     0.04864143     0.97603123    -1.07170819
