# total energy = -4984.74179989 eV

CRYSTAL
PRIMVEC
        4.08826792     0.00000000     0.00000000
        0.00000000     3.44922466     0.00000000
        0.00000000    -0.00007791     5.41479506
PRIMCOORD
6 1
Ti      2.04413385     1.72457332     2.70739770     0.00000000     0.00000000     0.00000000
Ti      0.00000000     0.00000000     0.00000000     0.00000000     0.00000000     0.00000000
O       2.04413385     0.67218789     1.05526386    -0.00000000     0.04003543     1.49222126
O       2.04413385     2.77695880     4.35953148    -0.00000000    -0.04003543    -1.49222126
O       0.00000000     1.05235438     3.76266259     0.00000000    -0.04003492     1.49243904
O       0.00000000     2.39679225     1.65213280     0.00000000     0.04003492    -1.49243904
