# total energy = -19076.40073992 eV

CRYSTAL
PRIMVEC
        7.60600008     0.00000000     0.00000000
        0.00000000     7.60600008     0.00000000
       -1.89786986    -1.89786986     4.85670466
PRIMCOORD
22 1
Ti      3.81384198     6.57328798     1.17913000    -1.00929978     0.61458413    -0.47347679
Ti      3.78004100     2.84918202     1.22418701     0.14738109    -0.11140003    -0.59647250
Ti     -0.00777298     6.68616000     1.22004202     0.75608536     0.52952712    -0.66889690
Ti     -0.03522400     2.91349399     1.20346601     0.08294099    -0.92743968     0.65354767
Ti      5.70321723     2.87243724     3.67003383     0.43917415     0.11343840    -0.77028017
Ti      5.74710423    -0.93754180     3.63623084    -0.21856699    -0.67838531     0.22258485
Ti      1.92451420     2.85728621     3.63957783    -0.36122136    -0.38257541    -0.40254620
Ti      1.89402121    -0.98478278     3.72708782    -0.06304707     0.39032009    -2.38516958
O       3.68708498     4.78215697     0.71896302     0.53527379    -0.94276140     0.64769507
O       3.74508900     0.91778999     0.66243599     0.30367902    -0.07570539     2.72956949
O       0.02645802     4.78400999     0.80788401    -0.15067390    -0.58813878    -0.28324080
O      -0.03170301     0.97738303     0.85983699     0.04294824    -0.92088825    -0.44204325
O       5.72581924     4.70323320     3.92261881     0.12614865     1.27118190     0.77620296
O       5.73140121     0.88288123     3.93960879    -0.14456367     0.79136194     0.83238107
O       1.86987724     4.71390623     4.04355979     0.19784209     0.70766427    -0.81115275
O       1.83641820     0.93294822     4.15513083     0.51268253     0.18856606    -1.57369852
O       3.84642925     2.97441325     3.23353880    -0.43891807    -0.71498909     0.17158726
O       0.04307725     2.81141824     3.26439179    -0.47594917     0.19086154    -1.22670026
O       5.59929402     6.49789700     1.69558498     1.64659164     0.58505757     0.79584774
O       5.68820601     2.83639498     1.55863899     0.91412444     0.18364085     0.40311673
O       1.95803398     6.65542698     1.59074200    -1.41949244     0.09354140     1.71775389
O       1.97155399     2.90223998     1.56881999    -1.42313955    -0.31746220     0.68339099
