# total energy = -19932.04365345 eV

CRYSTAL
PRIMVEC
        6.07104545     0.00000000     0.00000000
        1.89580387     6.17705282     0.00000000
        0.00000000     0.00000000    10.99295405
PRIMCOORD
24 1
Ti      3.32391357     3.66051581     4.07830755     0.02254833    -2.20443381     0.82033596
Ti      4.64293566     2.51653715     6.91464656    -0.02254833     2.20443381    -0.82033596
Ti      6.00823740     2.51653927     1.41812559    -0.45350420    -0.71395010     0.05797428
Ti      1.95861193     3.66051392     9.57482865     0.45350420     0.71395010    -0.05797428
Ti      2.37601177     0.57198950     1.41816966     0.02254833    -2.20443381    -0.82033596
Ti      5.59083748     5.60506364     9.57478457    -0.02254833     2.20443381     0.82033596
Ti      1.01071000     0.57198720     6.91460249     0.45350420     0.71395010     0.05797428
Ti      6.95613925     5.60506595     4.07835162    -0.45350420    -0.71395010    -0.05797428
O       2.58906896     2.17504535     5.60962031     1.77686563     2.07462057    -0.73687972
O       5.37778028     4.00200767     5.38333380    -1.77686563    -2.07462057     0.73687972
O       1.78158642     2.17507027     0.11317864    -0.50256421    -0.23028325     1.15332249
O       6.18526289     4.00198280    10.87977516     0.50256421     0.23028325    -1.15332249
O       4.42987845     0.91348118     0.11314298    -1.77686563    -2.07462057    -0.73687972
O       3.53697078     5.26357184    10.87981083     1.77686563     2.07462057     0.73687972
O       5.23736106     0.91345631     5.60965598     0.50256421     0.23028325     1.15332249
O       2.72948812     5.26359678     5.38329814    -0.50256421    -0.23028325    -1.15332249
O       1.37371051     3.75723373     2.96947114     0.49997356     1.86619787     1.85409723
O       6.59313872     2.41981929     8.02348297    -0.49997356    -1.86619787    -1.85409723
O       3.99876069     2.41976169     2.52704087     0.83181877     1.65658321     0.83895050
O       3.96808854     3.75729133     8.46591305    -0.83181877    -1.65658321    -0.83895050
O       0.42580863     0.66870725     2.52700576     0.49997356     1.86619787    -1.85409723
O       7.54104055     5.50834578     8.46594817    -0.49997356    -1.86619787     1.85409723
O       3.02018672     0.66876484     8.02351802    -0.83181877    -1.65658321     0.83895050
O       4.94666252     5.50828818     2.96943603     0.83181877     1.65658321    -0.83895050
