# total energy = -19942.24358487 eV

CRYSTAL
PRIMVEC
        5.93400000     0.00000000     0.00000000
        0.00000000     9.29699974     0.00000000
        0.00000000     0.00000000     4.64899994
PRIMCOORD
24 1
Ti      4.53945502     6.32502400     2.39877497    -2.30050621     6.00371169    -2.66547238
Ti      4.42275101     2.60086798     2.34358703    -2.24625719    -0.43034112    -1.08537412
Ti      1.52630102     5.65240002     2.38286298     0.31702768     6.80396913    -0.07233647
Ti      1.41717202     2.64009901     2.15412300     2.25921324    -1.99485412    -0.76947747
Ti      2.91600901     4.49637798     0.05567098     2.88529895     4.58879041    -0.53681260
Ti      2.97314502     0.82190599     4.59267501    -2.99061395    -5.73295025    -1.78232408
Ti      0.09433098     4.28282199     4.59002198    -5.36960053     6.04598989    -0.03626517
Ti      5.87276202     0.86720700     4.32682699     0.15635116    -9.76777109     0.78193344
O       4.58771598     5.54198301     0.79912300     0.12365674    -3.21638311    -0.68977118
O       4.48907798     1.27394602     0.89780900    -1.09164118     0.78719700     0.75980086
O       1.38014502     5.52722801     0.60799100    -0.47649373    -1.66533165     0.26880662
O       1.29538400     1.28809299     0.82643098     2.51059781     3.13596078     3.25509546
O       4.75052599     8.38816200     3.84806102    -0.50395209     4.10454275     0.86824052
O       4.38646500     3.53883201     3.92738601     0.11565392    -0.66331555     0.08940886
O       1.42707902     9.12129898     3.93456398     1.33820493    -0.40445730    -0.53188894
O       1.45983101     3.51877000     3.93487398     3.50217522    -2.26855664    -2.52533538
O       3.00232999     6.01920701     3.68027997    -0.55174095    -1.36017347    -1.16636081
O       2.89421199     1.72949000     3.01463400     0.29248572    -1.00284373    -0.10561453
O       5.86340501     5.72012402     3.44508302     2.09959987    -3.11075290     1.43640234
O       5.90582502     1.70366700     2.82089501     0.33862033    -0.52294124    -0.01044922
O       2.97102000     7.13175101     1.45757598    -0.73052267    -0.73794750     2.16151103
O       2.93246002     3.85613801     1.78454402    -0.72270343    -0.47262859     1.12638837
O       0.11088999     7.17142703     1.88407601     1.41667837     0.56500321    -0.28896228
O       5.85897701     3.45923602     1.50034202    -0.37153174     1.31608340     1.51885687
