# total energy = -39032.39453126 eV

CRYSTAL
PRIMVEC
        5.93200024     0.00000000     0.00000000
        0.00000000     9.29399984     0.00000000
        0.00000000     0.00000000     9.29399984
PRIMCOORD
46 1
Ti      4.36451600     6.78524601     6.96399103     1.29721664     0.09715817    -0.38355525
Ti      4.42410999     6.99080798     2.37587901     0.20316248    -2.57852072     0.67614845
Ti      4.43395797     2.31833601     7.13396699    -0.09004418    -0.21723336    -1.38403666
Ti      4.30341799     2.68220998     2.02145598     0.64262973    -0.73071396     1.65466028
Ti      1.41920698     7.13075499     7.06323700    -0.51917431    -1.31180123    -1.74579409
Ti      1.49013001     7.11896900     2.25410199    -0.77966367    -2.53370226     0.41707962
Ti      1.46555401     2.21213199     6.79739401     0.07199529     1.21766205     0.39151951
Ti      1.39993498     2.07137100     2.57545302     0.79403974     1.32751710    -0.69731737
Ti      2.94204898     4.65759198     4.62743502     0.61971117    -0.08140656     0.58827762
Ti      2.97241301     4.82706798     9.16864198    -1.06939522     0.60828930     0.93456986
Ti      3.00273598     9.27843298     4.63304298    -0.69531731     0.05021392     0.37479833
Ti      3.02040198     0.04174198     0.05253502     0.88041393     0.64065615    -0.95032559
Ti      0.03725498     4.65313700     4.61400699    -0.36892130     0.00814372    -0.19840105
Ti      0.04319399     4.48435401     9.26602002     0.77150658     1.56574867     0.51187598
Ti      5.83897099     9.14854198     4.80656199     1.00056291    -0.12174666     1.08024091
Ti      0.03297198     9.14871401     0.00445398    -0.76924478     1.16953330    -0.76951064
O       4.64537302     5.49788201     5.50712700    -2.88531926     1.96927549     2.25087335
O       4.47494402     5.53267399     0.74394601     0.72710670    -0.67441244     1.05538322
O       4.34283799     0.69932202     5.61273798     1.33324193     1.22283563     0.06438610
O       4.58065501     1.20450998     0.72576898    -0.65186205    -0.55608817     1.19611851
O       1.52254698     5.66011701     5.56062402     0.65163734    -0.34440685     0.23713576
O       1.47685099     5.57566202     1.01702099     0.19023111    -0.92901474    -1.42698258
O       1.54408000     0.76915601     5.64592501    -0.76437383     0.45488668    -1.54488159
O       1.60425301     0.94409502     0.97790199    -0.68858051    -0.08649066     1.14335200
O       4.52914802     8.55493401     8.29800898    -0.23438956    -0.73486218     0.82317189
O       4.60342201     8.46606700     3.63524599    -1.48211091    -0.04784902    -0.40574465
O       4.43723803     3.88277399     8.13586902     0.41178932    -0.30190984     1.90558204
O       4.42630300     3.69757502     3.85050402     0.81641375     0.25009952    -1.72107473
O       1.57059803     8.15896898     8.57277099    -1.07031979     2.57564468     0.73904279
O       1.45650598     8.28279498     3.87060000     0.28023235     0.30057441    -1.64440594
O       1.59277801     4.00461398     8.21737602    -1.01642482    -1.54080073     0.54978793
O       1.49313902     3.80680297     3.87913399     0.79082226    -2.50371908    -1.59426607
O       2.92213799     6.27937500     8.04914798     0.36845465    -0.45907527    -1.02435076
O       3.03520301     5.86089200     3.11204002    -0.11444036     1.79207525     0.05796760
O       2.88603699     1.42440201     7.89578099     0.44767191    -0.39512985     0.64793032
O       3.16632700     1.72065602     3.29868999    -1.69618618    -1.57862707    -1.06205703
O       0.00712601     6.05523599     7.79335000    -0.77553576    -0.00856435     0.87312073
O       0.00867798     6.04044401     3.24453299    -0.21403876     0.65864257    -0.65753545
O       0.10034598     1.34093399     7.81115702     0.29407877     0.16362404     0.62045859
O       2.83976198     8.02984799     6.17976600     1.05963222    -1.24260073    -0.68487992
O       3.01458600     7.71455101     1.25470699     0.07191867     1.38114699     1.21344159
O       3.17810198     3.12712200     5.99900599    -1.42732248    -0.10705795     0.34254640
O       5.70936198     7.83149299     6.11261198     1.47387284     0.91393264    -0.55179622
O       5.78452600     7.70401599     1.37215201     1.90577642     1.98208910    -0.93461074
O       5.92965800     3.10419502     6.02586401     0.32078046    -0.06432157     0.03288776
O       0.12064998     3.39326598     1.65754698    -0.11223435    -1.19969389    -1.00083133
