# total energy = -19960.35870922 eV

CRYSTAL
PRIMVEC
        5.93400000     0.00000000     0.00000000
        0.00000000     9.29699974     0.00000000
        0.00000000     0.00000000     4.64899994
PRIMCOORD
24 1
Ti      4.45848698     7.01324102     2.33635799     1.70714860     0.11581359    -0.57521590
Ti      4.47897302     2.45262199     2.39383600    -1.42624030    -1.16767979    -0.65116426
Ti      1.53309899     6.84599598     2.21196900    -1.75653822     0.68678690     0.24582918
Ti      1.49458801     2.36715399     2.43638302     1.18261148    -1.75663490    -1.53590612
Ti      2.95976800     4.65824901     4.62942700    -0.18295308     0.69408010     0.76509116
Ti      2.98172399     9.20694298     0.01330600    -1.17286416     1.15097070     0.68544839
Ti      5.89739099     4.59741702     4.62087200     0.42686499     1.48555876     0.45416086
Ti      5.91938598     0.07320601     4.55202800     0.99073203    -0.32853825     1.91054582
O       4.51746701     5.63598500     0.81741798    -0.55701119    -0.66759618     0.00134649
O       4.44124400     0.69329798     0.90563500     0.00902612     2.06885615     1.55088537
O       1.49311499     5.59992300     0.76751302    -0.06753005    -0.32245708     0.49101764
O       1.41975102     0.87262397     1.06692701     0.05782902     0.37841716    -0.57226530
O       4.39239602     8.40720000     3.78671202     0.56115042    -1.47270427    -1.82006121
O       4.44013199     3.77845998     3.82557501     0.03319373    -0.93930327    -1.20256633
O       1.45710702     8.38642101     3.89536401     0.08966366    -0.48337272    -1.59590772
O       1.51860398     3.77064699     3.68288601    -0.46661117     0.22797286     0.94449073
O       2.94159399     5.96369002     3.16358400     0.54813034     0.29958299    -0.03451167
O       3.05736501     1.52334303     3.27415898    -0.73443023    -0.39758654     0.14385148
O       0.02825097     6.01255002     3.13699999    -0.55317511    -0.30690987     0.50529806
O       5.88405599     1.52312500     3.32733499    -0.01832426     0.16644145    -0.32837216
O       2.92247101     7.82915000     1.40457300     0.62956004    -0.11047623     0.49875100
O       2.88589401     3.29307400     1.47355401     0.86371281     0.11887500    -0.51737737
O       0.01199301     7.78199999     1.37274701    -0.52381053     0.12916456     0.89052891
O       5.88765598     3.22636401     1.41661999     0.35986562     0.43073887    -0.25389756
