# total energy = -19957.52897641 eV

CRYSTAL
PRIMVEC
        7.60600008     0.00000000     0.00000000
        0.00000000     7.60600008     0.00000000
       -1.89786986    -1.89786986     4.85670466
PRIMCOORD
24 1
Ti      3.64363900     6.55374102     1.37605998     0.25281770     1.15337854    -1.09119047
Ti      3.85843803     2.92600400     1.32595002    -1.66092220    -0.88944596    -1.97480851
Ti     -0.08079600     6.60656503     1.08340998    -0.02288668    -0.03145052     1.55161403
Ti      0.13613000     2.90608598     1.07955001    -0.32079358    -0.09865018     2.53850277
Ti      5.75652824     2.86150920     3.48990079     2.00391778     1.14647332     2.16897520
Ti      5.72843422    -0.97700980     3.69992182     2.15472614    -0.93590041    -0.20557906
Ti      1.84688221     2.95768024     3.66810382    -1.34942703    -0.36222486     1.01371050
Ti      1.84904025    -0.94952576     3.70966979    -1.55914016     0.11943267     0.12217167
O       3.70850798     4.75884301     0.77949000     0.56077478    -0.59330002    -0.79316042
O       3.52237100     0.94014498     0.77547301     1.25382000     0.99472316     1.81521287
O       0.06099599     4.75028003     0.73994400    -0.84591639     0.14957141    -0.80237037
O       0.16099202     0.92149101     0.82084599    -0.99230786    -0.00528979    -0.94336690
O      -1.33429779     4.76018622     4.08586179    -1.90925409    -0.65130207    -0.66653432
O      -1.59828976     0.95406224     4.19325980    -1.45349504    -0.62180893    -4.55834237
O       1.50122622     4.82718022     4.30179680     0.94594289    -2.59219797    -1.68984918
O       1.63854020     0.93545621     4.01536681     2.21006196     0.67522105     0.17073905
O       3.91862924     3.20961825     3.42644783    -2.00814081    -1.17720213    -1.80276230
O       3.89924521    -1.29622280     3.38474184    -1.11083011     1.01820017    -0.40402741
O       0.00883525     2.62990425     3.16128182     1.20146615     1.15469289    -0.77086638
O       0.02353024    -1.09246278     3.02986980    -1.74995028     1.29965148     0.88452641
O       5.62177399     6.63085400     1.44750902     0.05696358     0.32150166     0.94190214
O       5.67993502     3.10856598     1.48946600     0.45786788    -1.17630636     0.94821420
O       1.77599997     6.32997900     1.72427898     3.01638644     0.82889748     0.23168888
O       1.93674698     2.92979201     1.27584402     0.86831894     0.27333536     3.31559945
