# total energy = -19518.31604623 eV

CRYSTAL
PRIMVEC
        7.60600008     0.00000000     0.00000000
        0.00000000     7.60600008     0.00000000
       -1.89786986    -1.89786986     4.85670466
PRIMCOORD
23 1
Ti      3.84580498     6.71206900     1.15685402     0.51327543     0.55125424     0.33929344
Ti      3.77689102     2.87920098     1.11497303     0.23316623    -0.98182444     2.37415291
Ti      0.02928901     6.63020798     1.13650001    -0.44754952     0.80421077     0.83599322
Ti      0.03025201     2.75775099     1.20508202    -1.14947303    -0.44286574     0.27631476
Ti      5.55116725     2.84515821     3.78035581    -1.12001769    -0.64597654    -2.21691653
Ti      5.73817024    -1.00404276     3.56326380    -0.28927312    -0.03112476     0.24033576
Ti      1.82594621     2.89060623     3.72311179     2.00713680     0.63544504    -1.96676301
Ti      1.92838122    -0.86899377     3.59438482     0.18849818    -0.77252860    -0.30871530
O       3.94151298     4.69109002     0.68877002    -0.91015954     1.27523859     1.47064970
O       4.00840702     0.95329101     0.88629903    -0.25569013     0.89767940    -0.98420400
O       0.12026998     4.80712398     0.78325700     0.56310651    -1.37849541     0.77878204
O      -0.17299402     0.89333698     0.94858001     0.48182645    -0.05902432    -0.55675743
O       5.49994623     4.69221923     4.00607980     1.08443412     1.34689680     0.84814091
O       5.64592522     0.82910624     4.19884283     0.49591868     0.90958747    -1.38506253
O       2.05024921     4.86141021     4.01294683    -0.94733977    -0.99357979     0.40533816
O       1.70602221     1.01471722     3.97002680    -0.08056375    -0.94917245     0.67727382
O       3.74918023     2.84994721     3.28904182    -0.33910472    -0.39139301    -0.75791213
O       3.90058821    -0.96498276     3.18059383    -1.30024078     0.41200632    -0.23150376
O       0.04052424    -1.08071780     3.30287182    -0.24596108     0.15508000    -0.51584345
O       5.71516399     6.50884398     1.57096803     0.79317508     0.10589144     0.75355591
O       5.76910398     2.94795301     1.80515801     0.48377458    -0.28002126    -0.10547929
O       1.93961301     6.86757800     1.64374900    -0.08587359    -0.63872963    -0.23071931
O       1.86372200     2.70698500     1.62276300     0.32693414     0.47144639     0.26004636
