# total energy = -19951.01918364 eV

CRYSTAL
PRIMVEC
        5.74379129     0.00000000     0.00000000
        0.00002427     4.51840113     0.00000000
        0.00000000     0.00000000     9.14500057
PRIMCOORD
24 1
Ti      2.08186248     2.67760036     3.39272999    -0.25488821     1.46817424    -2.60021750
Ti      3.66195313     1.84080092     5.75227063     0.25488821    -1.46817424     2.60021750
Ti      4.95365893     1.84080249     1.17973379    -0.25242277    -1.46804260     2.60122331
Ti      0.79015668     2.67759899     7.96526693     0.25242277     1.46804260    -2.60122331
Ti      2.08185045     0.41839990     1.17977045    -0.25488821     1.46817424     2.60021750
Ti      3.66196516     4.10000154     7.96523027     0.25488821    -1.46817424    -2.60021750
Ti      0.79014465     0.41839817     5.75223397     0.25242277     1.46804260     2.60122331
Ti      4.95367096     4.10000326     3.39276665    -0.25242277    -1.46804260    -2.60122331
O       1.81795479     1.59100588     4.66662379     0.90291931    -1.41460683     1.78530631
O       3.92586087     2.92739540     4.47837683    -0.90291931     1.41460683    -1.78530631
O       1.05399159     1.59102410     0.09415292    -0.90327156    -1.41571883     1.78591669
O       4.68982412     2.92737723     9.05084744     0.90327156     1.41571883    -1.78591669
O       3.92584884     0.66819479     0.09412325    -0.90291931     1.41460683     1.78530631
O       1.81796682     3.85020649     9.05087711     0.90291931    -1.41460683    -1.78530631
O       4.68981209     0.66817661     4.66665346     0.90327156     1.41571883     1.78591669
O       1.05400351     3.85022472     4.47834716    -0.90327156    -1.41571883    -1.78591669
O       0.20869999     2.74834769     2.47029280     1.02651435    -0.46827185     0.78499280
O       5.53511567     1.77005359     6.67470782    -1.02651435     0.46827185    -0.78499280
O       3.08060183     1.77001144     2.10223659     1.02713347     0.46842817    -0.78508973
O       2.66321383     2.74838989     7.04276388    -1.02713347    -0.46842817     0.78508973
O       0.20868796     0.48914713     2.10220738     1.02651435    -0.46827185    -0.78499280
O       5.53512770     4.02925420     7.04279309    -1.02651435     0.46827185     0.78499280
O       2.66320180     0.48918927     6.67473697    -1.02713347    -0.46842817    -0.78508973
O       3.08061386     4.02921201     2.47026359     1.02713347     0.46842817     0.78508973
