# total energy = -4858.66414027 eV

CRYSTAL
PRIMVEC
        5.50505704     0.00000000     0.00000000
       -0.00000681     1.83501901     0.00000000
       -2.75256355    -0.91762891     6.24504667
PRIMCOORD
6 1
Ti     -0.00023560     1.37630802     1.56126128    -0.07535392    -0.04344472   138.83627000
Ti      2.75272212    -0.45891797     4.68378447     0.07535392     0.04344472  -138.83627000
O       0.00005812     0.45873486     1.01726691     0.07330372     0.04289244  -134.19247185
O       2.75242825     0.45865514     5.22777890    -0.07330372    -0.04289244   134.19247185
O      -0.00002525    -0.45881193     4.13979009    -0.00098319    -0.00080733    -0.34380856
O       2.75251152     1.37620188     2.10525571     0.00098319     0.00080733     0.34380856
