# total energy = -19949.08936041 eV

CRYSTAL
PRIMVEC
        5.60001606     0.00000000     0.00000000
        1.74871564     5.69779872     0.00000000
        0.00000000     0.00000000    10.14005244
PRIMCOORD
24 1
Ti      3.06602372     3.37651028     3.76188713     0.65876752    -2.38032485     0.98475524
Ti      4.28270789     2.32128858     6.37816536    -0.65876752     2.38032485    -0.98475524
Ti      5.54208105     2.32129054     1.30809860    -1.56063783    -0.59515558     0.48350796
Ti      1.80665066     3.37650853     8.83195401     1.56063783     0.59515558    -0.48350796
Ti      2.19166603     0.52761101     1.30813926     0.65876752    -2.38032485    -0.98475524
Ti      5.15706561     5.17018801     8.83191336    -0.65876752     2.38032485     0.98475524
Ti      0.93229285     0.52760888     6.37812471     1.56063783     0.59515558     0.48350796
Ti      6.41643879     5.17019014     3.76192779    -1.56063783    -0.59515558    -0.48350796
O       2.38819292     2.00629183     5.17439115     1.32148967     1.76917726    -0.80893826
O       4.96053870     3.69150708     4.96566135    -1.32148967    -1.76917726     0.80893826
O       1.64335988     2.00631482     0.10439754    -0.12861254    -0.40818335     0.92834059
O       5.70537180     3.69148414    10.03565467     0.12861254     0.40818335    -0.92834059
O       4.08618098     0.84260764     0.10436464    -1.32148967    -1.76917726    -0.80893826
O       3.26255064     4.85519127    10.03568757     1.32148967     1.76917726     0.80893826
O       4.83101408     0.84258470     5.17442405     0.12861254     0.40818335     0.92834059
O       2.51771749     4.85521427     4.96562845    -0.12861254    -0.40818335    -0.92834059
O       1.26712952     3.46572422     2.73908114     0.32402262     1.25245912     1.17363215
O       6.08160210     2.23207469     7.40097136    -0.32402262    -1.25245912    -1.17363215
O       3.68851202     2.23202156     2.33097736     1.09469103     0.95810909     0.15048235
O       3.66021960     3.46577735     7.80907497    -1.09469103    -0.95810909    -0.15048235
O       0.39277175     0.61682479     2.33094497     0.32402262     1.25245912    -1.17363215
O       6.95595981     5.08097412     7.80910736    -0.32402262    -1.25245912     1.17363215
O       2.78586189     0.61687791     7.40100369    -1.09469103    -0.95810909     0.15048235
O       4.56286974     5.08092099     2.73904875     1.09469103     0.95810909    -0.15048235
