# total energy = -19938.13911149 eV

CRYSTAL
PRIMVEC
        5.30837454     0.00000000     0.00000000
        2.65871240     4.98503177     0.00000000
        0.00000000     0.00000000     9.83161793
PRIMCOORD
24 1
Ti      3.49958099     2.95412522     3.64746015     3.34823910    -4.50812690     1.07145930
Ti      4.46750610     2.03090668     6.18415789    -3.34823910     4.50812690    -1.07145930
Ti      5.66129315     2.03090846     1.26830959    -7.14667262     1.03355609     1.60339401
Ti      2.30579410     2.95412367     8.56330849     7.14667262    -1.03355609    -1.60339401
Ti      2.17022499     0.46160950     1.26834903     3.34823910    -4.50812690    -1.07145930
Ti      5.79686220     4.52342259     8.56326911    -3.34823910     4.50812690     1.07145930
Ti      0.97643785     0.46160758     6.18411845     7.14667262    -1.03355609     1.60339401
Ti      6.99064933     4.52342446     3.64749953    -7.14667262     1.03355609    -1.60339401
O       2.61631194     1.75531447     5.01699939     0.30847336     1.33034583    -1.39188341
O       5.35077520     3.22971747     4.81461864    -0.30847336    -1.33034583     1.39188341
O       1.91027285     1.75533453     0.10122202     1.75219923    -0.63239468    -0.40619794
O       6.05681436     3.22969744     9.73039569    -1.75219923     0.63239468     0.40619794
O       4.02141911     0.73720156     0.10119011    -0.30847336    -1.33034583    -1.39188341
O       3.94566803     4.24783033     9.73042760     0.30847336     1.33034583     1.39188341
O       4.72745826     0.73718153     5.01703125    -1.75219923     0.63239468    -0.40619794
O       3.23962883     4.24785042     4.81458673     1.75219923    -0.63239468     0.40619794
O       1.81004510     3.03217888     2.65576528     0.54217412    -0.48758393    -0.25073382
O       6.15704205     1.95285306     7.17585270    -0.54217412     0.48758393     0.25073382
O       3.88857149     1.95280650     2.26007496     1.96785290    -0.55549347    -1.60375242
O       4.07851566     3.03222543     7.57154286    -1.96785290     0.55549347     1.60375242
O       0.48068900     0.53966297     2.26004358     0.54217412    -0.48758393     0.25073382
O       7.48639813     4.44536892     7.57157424    -0.54217412     0.48758393    -0.25073382
O       2.74915956     0.53970952     7.17588403    -1.96785290     0.55549347    -1.60375242
O       5.21792758     4.44532236     2.65573390     1.96785290    -0.55549347     1.60375242
