# total energy = -19919.32776424 eV

CRYSTAL
PRIMVEC
        6.33390938     0.00000000     0.00000000
        2.59279698     6.22262896     0.00000000
        0.00000000     0.00000000    11.57932387
PRIMCOORD
24 1
Ti      3.83222665     3.68752428     4.29584656     0.00489821    -2.37757968     0.64440688
Ti      5.09447981     2.53510486     7.28347743    -0.00489821     2.37757968    -0.64440688
Ti      6.51889654     2.53510697     1.49376914    -0.56840761    -1.08934647     0.26018211
Ti      2.40780997     3.68752241    10.08555492     0.56840761     1.08934647    -0.26018211
Ti      2.53582828     0.57620977     1.49381556     0.00489821    -2.37757968    -0.64440688
Ti      6.39087821     5.64641955    10.08550850    -0.00489821     2.37757968     0.64440688
Ti      1.11141145     0.57620748     7.28343095     0.56840761     1.08934647     0.26018211
Ti      7.81529504     5.64642184     4.29589298    -0.56840761    -1.08934647    -0.26018211
O       2.91769019     2.19109350     5.90884035     1.82986303     2.12553074    -0.84893641
O       6.00901621     4.03153564     5.67048364    -1.82986303    -2.12553074     0.84893641
O       2.07524780     2.19111865     0.11921563    -0.17108950    -0.77819557     1.55831355
O       6.85145874     4.03151060    11.46010798     0.17108950     0.77819557    -1.55831355
O       4.71261782     0.92022101     0.11917804    -1.82986303    -2.12553074    -0.84893641
O       4.21408864     5.30240812    11.46014557     1.82986303     2.12553074     0.84893641
O       5.55506027     0.92019592     5.90887788     0.17108950     0.77819557     1.55831355
O       3.37164607     5.30243330     5.67044605    -0.17108950    -0.77819557    -1.55831355
O       1.80721171     3.78495586     3.12786428     0.62617158     2.64688047     2.51244386
O       7.11949469     2.43767329     8.45145972    -0.62617158    -2.64688047    -2.51244386
O       4.41277958     2.43761538     2.66183455     0.74999647     2.01349771     1.42605698
O       4.51392682     3.78501377     8.91748925    -0.74999647    -2.01349771    -1.42605698
O       0.51081330     0.67364117     2.66179753     0.62617158     2.64688047    -2.51244386
O       8.41589315     5.54898797     8.91752621    -0.62617158    -2.64688047     2.51244386
O       3.21752843     0.67369914     8.45149661    -0.74999647    -2.01349771     1.42605698
O       5.70917797     5.54893001     3.12782732     0.74999647     2.01349771    -1.42605698
