# total energy = -4988.79420209 eV

CRYSTAL
PRIMVEC
        3.79364014     0.00000000     0.00000000
       -0.00000766     3.43234146     0.00000000
       -1.89684684    -1.71620518     4.62253629
PRIMCOORD
6 1
Ti     -0.00016583     2.57438506     1.15563385    -0.00105904    -0.00356998     3.41629083
Ti      1.89695117    -0.85824869     3.46690189     0.00105904     0.00356998    -3.41629083
O       0.00003854     0.85807890     0.75297331     0.00084358     0.00380729     0.32148366
O       1.89674665     0.85805738     3.86956253    -0.00084358    -0.00380729    -0.32148366
O      -0.00001945    -0.85806690     3.06424136     0.00056256    -0.00007919     1.09948305
O       1.89680464     2.57420313     1.55829448    -0.00056256     0.00007919    -1.09948305
