# total energy = -19517.16093675 eV

CRYSTAL
PRIMVEC
        5.93400000     0.00000000     0.00000000
        0.00000000     9.29699974     0.00000000
        0.00000000     0.00000000     4.64899994
PRIMCOORD
23 1
Ti      4.56435900     7.08365102     2.28323500     0.41398042    -1.12645162     1.02655368
Ti      4.38329200     2.23809898     2.32956499    -0.24373167     0.07251825    -0.24001617
Ti      1.47914598     7.21316699     2.13700898     1.00659343    -1.18152493     0.82007217
Ti      1.42141603     2.26142501     2.41010201     0.23924664     0.10143314    -0.64678078
Ti      3.07387798     4.49933698     0.05083102    -0.27291730    -0.67868664     0.78795522
Ti      2.87119902     9.22107900     4.60104199     0.56887761     0.51997727    -0.14855043
Ti      0.07032602     4.66993102     0.05247300     0.18155492     1.15398043    -0.78177532
Ti      5.84110902     0.17128102     0.00046398     0.48040669    -0.65631855     0.24576079
O       4.36913799     5.55319998     0.91256802     0.15472313    -0.18060284     0.04757622
O       4.39443198     0.89395903     0.84365898     0.07338445     0.36205928     0.85029216
O       1.48313598     5.74585500     0.93669998     0.31080278    -1.10619801    -0.25849238
O       1.62764899     0.81048602     1.07704800    -1.10218837     0.24162619    -0.51778669
O       4.56646898     8.39631202     3.69725598    -0.72122067    -0.72145387     0.31275399
O       4.44838499     3.74565099     3.60341402    -0.63857150     0.69921331     1.53387006
O       1.41990999     8.38259199     3.85627401    -0.03857042    -0.97798861    -1.30360532
O       1.46553898     3.77692801     3.79205602     0.51655333    -0.89712610    -0.24684759
O       2.99577401     1.33612001     3.34997002    -0.66190530     0.76842486    -0.83406617
O       0.08447299     5.89949997     3.27774299    -0.73764951     1.44475637    -0.84852272
O       5.86299198     1.25595198     3.13218199     0.63321204     0.48969943     0.90078093
O       3.12544901     7.87974803     1.29739101    -0.68134799    -1.32130275     1.95253220
O       2.91452398     3.13651902     1.47823299    -0.18496523     0.86822046    -0.82157678
O       5.92855302     7.99218200     1.52415002    -0.63871188     0.72573425    -1.20197240
O       5.83325000     2.99774202     1.40335198     1.34244416     1.40001041    -0.62815467
