# total energy = -19957.82518116 eV

CRYSTAL
PRIMVEC
        5.93400000     0.00000000     0.00000000
        0.00000000     9.29699974     0.00000000
        0.00000000     0.00000000     4.64899994
PRIMCOORD
24 1
Ti      4.49320101     6.89817900     2.09205701    -1.04629642     1.95336241     1.30195364
Ti      4.40847698     2.43460699     2.37569898    -1.12119706    -2.18825000    -0.26290002
Ti      1.46924201     6.87816303     2.42368202     1.22188972     0.94007331     0.82444536
Ti      1.41729501     2.38203699     2.37183101     1.00929566    -1.42208694     0.39964085
Ti      2.98865298     4.95419202     0.02096299    -1.10737480    -4.33548420     0.15406004
Ti      2.98843099     9.08020302     4.62302703    -0.75017105     3.80280594     0.60957870
Ti      0.00657402     4.66866798     4.54609698     1.11514185    -3.61628571    -0.62666369
Ti      5.88891802     9.10510901     0.18756698     0.30318871     4.79242906    -1.45954279
O       4.62790101     5.58623202     0.81357801    -0.70838906     0.50552303     0.33196811
O       4.30464600     0.78195898     0.95473397     1.90106975    -0.84610254     0.05267987
O       1.42625202     5.73723100     0.83423402    -0.32862233    -1.47200210    -0.61164484
O       1.55711898     0.81361299     0.85027301    -1.49390019     0.17739436     1.23740890
O       4.40878099     8.26755801     3.87148600     1.95705709    -1.17025115    -1.86534041
O       4.30731898     3.74033302     3.62130402     1.49761030     3.55559248     3.11515874
O       1.51541801     8.46277901     3.64853500    -1.38919815    -1.95302303    -0.89694355
O       1.71104998     3.85001501     3.64917499    -1.87720271     1.23029800     1.30337675
O       3.06866400     5.99751403     3.19187102     0.00656994     1.54497672    -1.20800550
O       3.07156299     1.49595302     3.30692198    -1.56631766    -0.72212750    -0.54590094
O       5.81826597     6.11690800     3.15203900     0.74082508    -1.13494861     0.78082864
O       5.86948800     1.67874598     3.47084501     1.63794990    -0.66730745    -1.42138760
O       2.88816698     7.67381801     1.35214498     0.85670423    -0.10622645     0.55131594
O       3.01764099     3.28534901     1.44014202    -1.20005179     0.99934935    -1.04174351
O       0.17196700     7.84991000     1.44297598    -1.47361855    -0.77431757     0.80300338
O       5.85368402     3.29104899     1.43088999     1.81503701     0.90660885    -1.52534583
