# total energy = -19955.91791482 eV

CRYSTAL
PRIMVEC
        5.93400000     0.00000000     0.00000000
        0.00000000     9.29699974     0.00000000
        0.00000000     0.00000000     4.64899994
PRIMCOORD
24 1
Ti      4.35125900     6.60819600     1.96559497     1.60502203     1.43512758     3.24390807
Ti      4.45746202     2.50098799     2.32553700    -1.60221721    -2.71313782     0.78340822
Ti      1.43120602     6.81094101     1.99836100    -1.69539377     0.26154094     1.85632174
Ti      1.43581002     2.58767898     2.29731201     1.85926952    -2.49662463     0.95789235
Ti      2.97992600     4.67068399     4.47809802     0.17760673    -3.97853885    -0.19306087
Ti      2.98004703     9.03347201     0.50225202     1.82768556     3.62421499    -3.79327846
Ti      0.01476600     4.76558097     4.55058398     0.28491099    -3.78055689    -0.43407462
Ti      0.10090500     0.00952498     0.37702498    -1.70842669     1.40908718    -1.99528581
O       4.40378598     5.75898802     0.43111801     0.75958772     1.50462684     0.57844469
O       4.42906801     0.99608002     1.14867400     0.16501166    -1.51896872    -1.26893501
O       1.57533898     5.67532499     0.60941402    -1.09465015     1.67708288     0.54309612
O       1.53418603     0.95475302     1.24837300     0.07920698    -1.54685594    -2.26675686
O       4.49309798     8.43291500     4.05861001    -1.02193084     0.20717263     1.12425153
O       4.41608999     3.68226000     3.84797699     1.59738791     1.53174042     0.05181238
O       1.49793098     8.33653499     4.14052702     0.40462880     0.00656814     0.36662196
O       1.57658699     3.71903999     3.88070702    -2.11286240     0.71738021    -0.61413573
O       2.91954402     5.75299101     2.81996001     0.26678188     0.08277438     0.28388898
O       2.92802901     1.78557702     3.20189998     0.43528716    -0.56923731     0.06868036
O       0.01931799     5.74589802     2.88776301    -0.37190198     1.18451178    -0.59124056
O       0.08327303     1.59685898     3.07645899    -0.41888377     0.21187981     1.53454215
O       2.93272598     7.88145102     1.87660699     0.71740207     0.10359801     0.29049594
O       3.05904001     3.30668798     1.32635399    -0.69800746     2.38237993    -1.07326885
O       5.82597000     7.89176199     1.56997201     0.45492885    -1.30969370     1.31244786
O       5.91637702     3.46216602     1.34401898     0.08955644     1.57392838    -0.76577508
