# total energy = -19075.72655649 eV

CRYSTAL
PRIMVEC
        7.60600008     0.00000000     0.00000000
        0.00000000     7.60600008     0.00000000
       -1.89786986    -1.89786986     4.85670466
PRIMCOORD
22 1
Ti      3.81276500     6.59179997     1.19564398     1.06394371    -0.30550245     0.40370500
Ti      3.79262399     2.86675102     1.19146300     0.61046393     0.16133010    -0.45583028
Ti      0.22366798     6.69391002     1.00722201    -0.70039087    -1.28519725     0.48160174
Ti     -0.03324101     2.78481602     1.21562000    -0.75000933     1.50046088    -0.18773739
Ti      5.65047821     2.88747122     3.58566483    -0.00294211     0.21284654     0.49088600
Ti      5.96659923    -0.83280878     3.67026582     0.78052345    -1.12995989    -1.48652755
Ti      1.86314621     2.81653723     3.57123083     0.07225522    -1.12864066     0.98056100
Ti      1.51001422    -1.09769878     3.86347283    -0.83665245     1.30387837    -0.25964886
O       3.87419698     4.70223798     0.71137800    -0.54832858     0.46969753     1.05409484
O       4.14716100     1.00075398     0.67637399    -0.55317356    -0.67364265     1.96843474
O      -0.12001200     4.81117399     0.76061800     1.00180038     0.12365211    -0.06997208
O      -0.24645901     0.91510199     0.65392798     0.33063602     0.66442473     1.53874899
O       5.80818123     4.79615223     3.91669282     0.01655020     0.24481951     0.32582368
O       5.60892425     0.97806222     4.01007382     0.44577469    -0.18899364     0.14650485
O       2.06903823     4.66439921     4.22116781    -0.77096022     1.17962411    -1.86757598
O       1.63952024     0.93589024     4.05909283     0.15500493    -0.31153863    -0.26751953
O       3.79308125     2.86640124     3.21061283    -0.20520239    -0.25756678    -0.13568411
O      -0.02389680     2.86155424     3.20976081     0.20929430    -0.00379598    -0.40030471
O       5.62254199     6.50575501     1.80650202    -0.12418947     0.91266611     0.57077072
O       5.69306602     3.00493100     1.62285999     0.30779047    -0.56706421    -0.10799280
O       2.01489900     6.70774102     2.10644598     0.39825323    -0.34911146    -2.02816894
O       1.91758399     2.97722201     1.65214397    -0.90044103    -0.57238665    -0.69416931
