# total energy = -39040.37573728 eV

CRYSTAL
PRIMVEC
        7.60629642    -0.00000847    -0.00005503
       -0.00000847     7.60629642    -0.00005503
       -3.80314186    -3.80314186     9.70738094
PRIMCOORD
46 1
Ti      1.91027558     4.74394819     6.07480637     0.06819442    -0.01302290    -0.05634986
Ti      3.80310599     6.64513467     1.20047818     0.00032370    -0.06227600     0.08578746
Ti      1.81802351     0.96069438     6.01322075    -0.02898431    -0.01716880     0.01350704
Ti      3.80293237     2.85971424     1.20129344     0.00026765     0.08529689    -0.01951854
Ti     -1.91062942     4.74390293     6.07483467    -0.06807152    -0.01303833    -0.05643625
Ti     -0.00001275     6.68268406     1.37965691     0.00014321    -0.06631212    -0.05416905
Ti     -1.81790187     0.96065229     6.01339057     0.02817159    -0.01718706     0.01331189
Ti     -0.00020730     2.78891240     1.17039795     0.00028539     0.05170259    -0.02602317
Ti      3.80313158     0.90850152     8.61885357     0.00057156     0.01417707     0.06825562
Ti      5.70954622     2.86017959     3.61645113     0.03857582    -0.02480910    -0.06236007
Ti      3.80321888    -2.80909977     8.46517283    -0.00000000     0.08253913     0.16069786
Ti      5.66778666    -0.96024196     3.66569956     0.05916908     0.02796770    -0.04248415
Ti      0.00019844     0.96095196     8.44952584    -0.00014527    -0.00542014    -0.12292886
Ti      1.89706193     2.86026222     3.61643570    -0.03874268    -0.02501813    -0.06249660
Ti      0.00006571    -2.86377127     8.49876032     0.00011956    -0.07452294    -0.01264598
Ti      1.93862525    -0.96020852     3.66568547    -0.05925495     0.02798698    -0.04250421
O       2.00092922     2.83389322     5.64514422    -0.00579553    -0.03579208     0.02273730
O       3.80316947     4.75177140     0.76864687    -0.00000771    -0.00183268    -0.10925161
O       2.03626590    -0.92870439     5.69760358     0.01029470     0.04687251     0.01711738
O       3.80316073     0.95260871     0.76378068    -0.00006865     0.02428871    -0.00585775
O      -2.00095284     2.83384816     5.64517696     0.00577341    -0.03571366     0.02283552
O       0.00008032     4.84892277     0.80282007    -0.00011930    -0.01438353    -0.06973760
O      -2.03627680    -0.92869635     5.69766748    -0.01033481     0.04672005     0.01712535
O       0.00012279     0.87110937     0.76890219    -0.00002597    -0.06526928     0.05421276
O       5.72210146     4.75200983     4.08999198     0.02551589     0.00696846    -0.01937353
O       3.80307941    -0.95302539     8.90974609    -0.00010696    -0.00413022    -0.00768297
O       5.66950026     0.95511733     4.04234869    -0.03056863    -0.00320385     0.06368856
O       0.00000533     2.83730647     8.89407753    -0.00010567    -0.02033795     0.02094241
O       1.88408899     4.75204102     4.08999932    -0.02539042     0.00697078    -0.01953088
O      -0.00003387    -0.93152217     8.84855510    -0.00003471     0.02668857    -0.04980306
O       1.93681882     0.95513982     4.04230536     0.03082908    -0.00304907     0.06390325
O       2.02562949     1.08635817     8.01729113     0.07369839     0.04980126     0.07276327
O       3.80316348     2.87569950     3.16599992     0.00002880     0.03866272     0.04706149
O       1.91551504    -2.96502039     8.09360894     0.05591637     0.00717415     0.00504091
O       3.80316712    -0.97305330     3.22477106     0.00003625    -0.03888229     0.05790949
O      -2.02576042     1.08639077     8.01723429    -0.07338163     0.04983854     0.07228659
O       0.00000829     2.83379460     3.23151202    -0.00003625    -0.01041503    -0.05960668
O      -1.91551555    -2.96501626     8.09361552    -0.05599813     0.00711733     0.00514709
O      -0.00000154    -0.92815664     3.31763919     0.00004628    -0.00467298     0.01591616
O       3.80310650     4.71578394     6.48359324    -0.00005322    -0.01286580     0.09740165
O       5.68662762     6.65728570     1.67342351     0.04262274     0.01264315    -0.03057994
O       5.71881921     2.85420226     1.60017315     0.05184297    -0.01740226    -0.00235925
O      -0.00002468     4.77558310     6.48053626    -0.00014192     0.02209041    -0.03343541
O       1.91970071     6.65727966     1.67343106    -0.04273586     0.01263415    -0.03056014
O       0.00005394     0.92299455     6.46352477    -0.00044866    -0.04412349     0.00044840
O       1.88748223     2.85424142     1.60021660    -0.05187434    -0.01729222    -0.00240167
