# total energy = -19516.97140067 eV

CRYSTAL
PRIMVEC
        7.60600008     0.00000000     0.00000000
        0.00000000     7.60600008     0.00000000
       -1.89786986    -1.89786986     4.85670466
PRIMCOORD
23 1
Ti      3.77868498     6.74992099     1.19086599     0.58006243     0.09746284     0.65922698
Ti      3.91636600     2.91957101     1.18173001    -0.39287962     0.17244472     1.51920140
Ti     -0.04178997     6.63237998     1.26768099    -0.63027224    -1.60806262     0.39616703
Ti      0.02297000     2.72934602     1.00906698     2.80241530     0.73046791     1.95435126
Ti      5.66759122     2.73583522     3.66446684    -0.22899616     0.79386002     0.39758191
Ti      5.65729920    -1.22639278     3.68559281    -1.21730133     0.89218933    -1.22729367
Ti      1.94591625     2.90456423     3.59956679     1.45269619     0.19510695     0.88463491
Ti      1.86215024    -0.87154276     3.66988281     0.44185453    -0.16297843    -0.87939345
O       4.09816802     4.88975898     0.72767201    -1.39256501    -1.55238844     0.11012142
O       3.87048999     1.06843501     1.02967701     0.18337577     0.45878885    -1.33466477
O       0.32545602     4.66980201     0.77031401    -0.10073663     1.57834502    -0.38596798
O      -0.13060100     0.78250101     0.73821200     0.23768443     1.57484858    -0.45359007
O       5.37625724     4.63015520     4.02777681     1.25826879     0.01900534     0.50398526
O       5.45055520     0.94194625     4.12966581     0.27019707    -1.08958044    -2.83720516
O       2.05993622     4.92303724     4.06302383    -1.35789290    -1.34395237    -0.13989275
O       1.71436522     0.95762820     4.02101583     0.07199323     2.06989719     1.20749514
O       3.83513825     2.94748723     3.19866380    -0.18448418    -0.52641377    -0.89325659
O       3.76118123    -0.98248376     3.10523581    -0.21240174     0.16481832     0.77826936
O      -0.10931177    -1.11044877     3.37009379    -0.04182852    -0.07646952    -0.80035540
O       5.62295898     6.76087099     1.50310702     1.72445290    -0.53246281     1.36689536
O       6.04944902     2.94816500     1.68472198    -3.33177221    -0.14106954     1.13471643
O       1.72789099    -0.44700798     1.80962400     0.54849184    -1.66634723    -0.87613252
O       1.87610899     2.79469603     1.74811699    -0.48036221    -0.04751015    -1.08489409
