# total energy = -39034.65688442 eV

CRYSTAL
PRIMVEC
        5.93200024     0.00000000     0.00000000
        0.00000000     9.29399984     0.00000000
        0.00000000     0.00000000     9.29399984
PRIMCOORD
46 1
Ti      4.44261801     7.19975902     6.85415701    -1.10326206    -0.58486602     0.74650465
Ti      4.50762998     6.71789598     2.42483002    -0.16930952     0.90225417    -0.28849896
Ti      4.39694901     2.19802597     7.10416802    -0.41040298     0.57281989    -0.38343390
Ti      4.46941200     2.52644401     2.04409599     0.29889960     0.08617904     0.74211166
Ti      1.45926098     6.81864498     7.12155699    -0.28017090     0.26492503    -0.17440288
Ti      1.46796701     6.99741598     2.16362802     0.52280882     0.79762257    -0.00995506
Ti      1.41195100     2.44448298     6.80050399     0.47725914     0.05156349     0.25673092
Ti      1.54624100     2.09896802     2.58179098    -0.68776701     1.24240507    -0.79247034
Ti      3.02715798     4.56918202     4.55808999     0.10187229     0.13817191     0.28783305
Ti      2.95748000     4.89347602     9.11195599    -0.59779919    -1.03668846     0.31871792
Ti      2.90985002     9.25394398     4.63182899    -0.32285303    -0.59109452     0.68729624
Ti      2.92136899     0.02624698     0.14533398     1.05391692    -0.97263506    -1.26105998
Ti      0.03232400     4.74551002     4.65237901    -0.25444341    -0.67428799     0.66492815
Ti      5.90476502     4.70473099     9.19228499     0.39106211    -0.50189983    -0.28819480
Ti      5.84956898     9.03086698     4.91224499     1.47261042     1.32840234    -0.90479545
Ti      0.03168100     0.06190501     9.26593302    -0.47529662    -1.28659130    -0.95255654
O       4.47127598     5.58608797     5.52668598     0.01803372     0.15597423    -0.41145122
O       4.41810901     5.48462602     0.91808300    -0.55557600    -0.05655246     0.65088246
O       4.58807699     0.77169400     5.78135999    -1.25719946     0.44449428    -0.48470326
O       4.53664000     0.86144500     0.83068102    -1.10291599     1.90863266     1.78470775
O       1.49934801     5.50890398     5.58957499    -0.01998082     0.22442294    -0.35656483
O       1.36299798     5.81314603     0.61828699     1.12378050    -0.77164517     0.84562766
O       1.39243701     0.88672702     5.64543298     1.19371196     0.34158944    -1.18185866
O       1.43963697     0.74929303     1.09232599     0.16499598     0.48495857     0.48497631
O       4.40718102     8.40887098     8.47843303     0.36562977    -0.43243709    -1.45688889
O       4.51528400     8.10964400     4.12982102    -1.04033172     0.09775878    -2.13309030
O       4.39434001     3.85609298     8.36797003    -0.31028213    -1.11721313     0.25081712
O       4.52677799     4.04808198     3.44953102    -0.75855028    -1.34629876     0.25676923
O       1.51813799     8.37407398     8.22045700     0.07179191     0.91327161     2.30932946
O       1.44795601     8.35228902     3.70629697     0.57450782     1.65704369     0.50359651
O       1.39884000     3.91135199     8.27453600     0.92215914    -0.52129573    -0.00899938
O       1.46974399     3.56738202     3.86550101     0.17619134     0.13534009    -0.60700811
O       3.02324900     6.08650698     7.81043798     1.11555734     0.54293877    -0.37301244
O       2.91582999     6.10360999     3.17590902    -0.64423179    -0.79389293     0.40520009
O       2.85759599     1.57362301     7.98446601     0.40561636    -0.23722215    -0.18304590
O       3.28384102     1.69029802     3.28422202    -0.53818608    -1.82873483     0.20526821
O       5.76532899     6.08684502     7.82628202     0.17450366    -0.18644464     0.20477122
O       0.14700401     5.95791998     3.10215399     0.05853350    -0.14639044     0.85959312
O       0.05376399     1.49475200     7.99359199    -0.05116343     0.29837123    -0.36223232
O       2.87665299     7.87351702     6.02841898    -0.24208231     0.06458356     0.24587237
O       3.00412702     7.86949802     1.36261200     0.13993337     0.05818537     0.57732575
O       3.08191899     3.23747101     5.98128601    -0.59584952    -0.60883565     0.39586673
O       0.11864000     7.90227002     6.28074202     0.03928313    -0.21929641    -0.64750403
O       5.83704399     7.77751701     1.50611201    -0.28002435     1.16301504    -0.59677923
O       5.80379102     3.22949700     6.01685000     0.53533524    -0.24597085     0.30190573
O       0.20912699     3.09533099     1.47032402     0.29968378     0.28536967    -0.12812532
