# total energy = -39025.92410699 eV

CRYSTAL
PRIMVEC
        7.60600008     0.00000000     0.00000000
        0.00000000     7.60600008     0.00000000
       -3.79573973    -3.79573973     9.71340985
PRIMCOORD
46 1
Ti      1.97231346     4.18208146     6.06663765    -0.23184340     3.39708160     0.08412036
Ti      3.86283099    -0.42496198     1.13247699    -0.10332882    -2.46491700     1.35529223
Ti      2.05184446    -0.10023157     6.04650060    -0.38140890     0.13535269    -0.38491768
Ti      3.82852702     3.50512903     1.40203703    -0.17553313    -1.01172716     1.59449336
Ti     -1.88024255     4.38457346     6.18707564     0.52115303     3.19864815    -0.36723029
Ti      0.00075699     6.92326703     1.21790202    -0.97948268    -2.19821046    -0.47256277
Ti     -1.97683057     0.81623643     6.12571060     0.32053698    -2.91438482    -3.35643604
Ti     -0.05595399     3.11625201     1.25389502    -0.95852973     0.20203608     0.66116251
Ti      3.69860946     1.32302943     8.45771462    -2.42319955     0.91285046     0.98076669
Ti      5.64000902     2.61082302     3.70115798    -1.83854899    -2.16360648    -0.31174946
Ti      3.88261545    -2.52765757     8.66936261    -0.81879330    -2.20430012    -1.96152027
Ti      5.79904599     6.14706100     3.56452901     0.42877018     7.47665532     0.41048500
Ti     -0.12954354     1.44807344     8.24229064     1.91796474    -0.42108309     1.58826383
Ti      1.87462702     2.07801201     3.36995900     0.39255618     2.98786724    -1.72114209
Ti     -0.02260053    -2.20920855     8.60202465     1.75111474    -0.86886633     0.13311609
Ti      2.02510201     6.26189701     3.28326702     0.49117653    -0.41086347     1.23982163
O       2.65602544    -1.67541153     5.22395764    -1.66677995     0.47314049     0.42454791
O       4.26085600     1.19742302     0.79182099    -0.34456009     2.61890480    -2.16841085
O       5.27202646     2.69473545     5.55131362     1.26725531    -0.04273046     0.64844763
O       0.37172601     5.09987600     0.51365198    -0.05775548    -1.70302480     1.95081008
O      -1.91481153    -1.00765456     5.81905064    -0.67215912    -1.15785431    -0.05253537
O      -0.08448997     1.04193799     1.08572598     0.37800090     3.49384304    -1.58279200
O       3.43887143     3.19067645     8.93480565     1.63455219     1.14309309     0.59113746
O       5.30939400     4.64851702     4.06782198    -0.66870047    -4.17376124     2.02658977
O       3.29670246    -0.90848753     9.15887861     0.90776353     2.04038812     0.04186015
O      -1.53020698     0.65704801     4.24747898    -1.89224393     1.33819696    -0.59705460
O      -0.39512856     3.15209446     8.78239164     0.78674860     1.44680477     0.86891415
O       1.97075800     3.68088699     4.28193001    -0.31734932    -0.61354926     0.81036857
O       0.16828546    -0.22415155     9.35662961    -1.14877780    -1.07198252    -2.01600402
O       1.87171999     0.50312998     4.13547798    -0.74114596    -1.10251464     2.39001894
O       1.85733245     1.46225248     8.61385261    -0.50301004    -0.86590956    -1.70772684
O       3.81049700     2.31744001     3.06245903    -1.36094763    -0.11029805    -0.01917041
O       1.84316045    -2.35496555     7.89255263    -0.89963936    -0.54241606    -0.55278044
O       3.75393298    -0.73394101     3.08542400     1.81921454    -1.01912268    -0.44711552
O      -2.00612953     1.22868644     7.96032262    -0.66082132    -0.26308334     1.17278549
O      -0.31291500     2.42489701     3.24536898     5.09746948     0.99484374    -1.23615626
O      -1.85604655    -2.29057654     8.12787363    -0.12376061    -0.27941885     0.53305365
O       0.03186197     6.18430597     3.36808699     1.42710368    -0.51109925    -1.38987641
O       3.95053746     4.39294245     6.65787262    -1.67663988     0.12541409     1.28531912
O       5.79393499     6.84584199     1.69344203    -0.67074733    -1.32768860    -0.04006603
O       3.52176546     0.91143743     6.44837664    -0.40768944    -0.78977119     0.27242236
O       5.65092801     3.38232101     1.86776899     0.07721720     1.17236588    -1.40703313
O       0.04895345     4.88301943     6.03117563     0.38612250    -1.88447199     1.36290244
O       1.94013398    -0.38746898     1.68009602    -0.62536965    -0.31960033    -1.09199008
O      -0.06480955     1.13606746     6.46884760     1.95156752    -0.43738286    -0.57746870
O       1.77731498     3.00079702     1.49208802     0.79247882    -0.28384887     1.03503961
