# total energy = -19960.76820114 eV

CRYSTAL
PRIMVEC
        5.93400000     0.00000000     0.00000000
        0.00000000     9.29699974     0.00000000
        0.00000000     0.00000000     4.64899994
PRIMCOORD
24 1
Ti      4.43687998     6.87350701     2.29818801    -0.14607985     1.74330475     0.20014194
Ti      4.45196302     2.33757102     2.34127801     0.34378824     0.59612437    -0.26896809
Ti      1.43065398     6.98312502     2.34649602     0.07044748     1.26952868    -0.24098290
Ti      1.52807101     2.23491201     2.32076102    -0.31422492     1.04518159     0.07424269
Ti      2.97876499     4.65041899     4.57999200    -1.05657647     0.12641168    -0.33490199
Ti      2.97378300     0.07763602     0.03027899     0.46458412    -3.10471878     0.27076349
Ti      5.93227399     4.62899398     0.08652101     1.00183972     0.11906912    -0.53792460
Ti      5.92682103     0.09854799     4.59422200    -0.38993442    -2.50611277    -0.58141406
O       4.36709802     5.50405100     0.92292502     0.62822512     0.15954987    -0.06220864
O       4.52444702     0.88430202     0.86598402    -0.60016615     1.25932885     1.26481636
O       1.42316602     5.59187500     0.85093400     0.26841864    -0.74216309    -0.07445275
O       1.45469101     0.92308298     0.80789798     0.39360493     1.03747008     1.73759124
O       4.48080101     8.33823598     3.82946102     0.12488161     0.36969469    -0.80803786
O       4.43389802     3.78699201     3.72504900    -0.11480468    -0.68826914    -0.10535073
O       1.53367802     8.39042598     3.68996699    -0.26967283     0.27595686     0.35896110
O       1.42540401     3.72370198     3.67955601     0.43051364     0.21031195     0.81903679
O       2.95497900     6.03872201     3.21777398     0.35979594    -0.17914091     0.10516819
O       2.92135301     1.36082999     3.34794502     0.51068170     1.75603737    -2.25335807
O       0.01922199     6.03908100     3.21691100    -0.54739192    -0.12721875     0.02574344
O       0.03334399     1.54523800     3.25650801    -0.30086855    -1.15324073     0.18960684
O       2.98831097     7.89283098     1.35868000     0.20538982    -0.53280991     0.95626227
O       3.03105802     3.23470299     1.45542799    -0.54296448    -0.65767841    -0.00247829
O       0.04910601     7.92142402     1.45284699    -0.47039430    -0.44381191     0.00336815
O       5.91663801     3.22143498     1.48248700    -0.04909292     0.16719479    -0.73562451
