# total energy = -19070.55687818 eV

CRYSTAL
PRIMVEC
        5.93400000     0.00000000     0.00000000
        0.00000000     9.29699974     0.00000000
        0.00000000     0.00000000     4.64899994
PRIMCOORD
22 1
Ti      4.27311799     7.30164702     2.18433198    -0.95373847    -0.32592678    -0.41581233
Ti      4.63417197     2.04696402     2.21483100    -3.30751693    -0.16161986     1.33908322
Ti      1.62223001     6.97681198     2.76403603    -1.86349358     1.02258056    -1.13144830
Ti      1.49853297     2.53500398     2.22677702     0.70821191     1.32006142    -1.29903621
Ti      3.14952800     4.58787500     4.56418902     0.16996284     0.22791321    -0.11120719
Ti      2.88164900     0.25052701     4.63665101     1.25600930    -0.60045720    -0.00951900
Ti      5.89936900     4.57636899     4.56326302    -0.54341982     0.46726038    -0.83916339
Ti      0.01159999     8.78251399     0.17019700    -0.27220382    -1.03779944    -0.08961352
O       4.32406903     5.85058600     0.60533300    -0.01879323    -1.89078328     0.27225884
O       4.45657400     0.29344799     1.49490102     1.30537578     0.93726849    -1.44243543
O       1.42351802     0.92981401     0.70732001    -1.72328665     1.05928358     1.74109463
O       4.25740402     8.23796398     3.79330599     0.58130376     1.17025758     1.10032869
O       4.46197399     3.83539199     3.51507200     0.78985424    -1.00529785     0.63348046
O       1.49299302     8.65520098     3.67295098     0.36263135     0.07776407    -0.02293631
O       1.44378498     4.05316001     3.36760501    -1.31322459     0.18155929     1.89930263
O       2.99876101     5.87666698     2.89248698     1.28502550     0.57998067     0.60635377
O       2.67382300     1.56148401     3.07296198     2.09217684    -1.19831192     1.83344046
O       0.32547401     6.65739700     3.92521702    -0.88412403    -2.77041405     1.22958503
O       2.65278598     8.04489599     1.57120298     0.58237051    -0.65693150    -1.35416608
O       3.03241398     3.51079302     1.44598001    -0.36009779    -1.10621986    -1.59624839
O       0.07040000     7.42703599     1.58921400     0.83549314     1.21165081    -0.80452856
O       5.72758098     2.86124398     1.13967301     1.27148400     2.49818220    -1.53881301
