# total energy = -19950.64414652 eV

CRYSTAL
PRIMVEC
        5.95082162     0.00000000     0.00000000
        0.00002962     5.73028561     0.00000000
        0.00000000     0.00000000    10.16890967
PRIMCOORD
24 1
Ti      2.15690420     3.39576189     3.77259305     0.10421405    -0.48472460     0.35241970
Ti      3.79394703     2.33452360     6.39631697    -0.10421405     0.48472460    -0.35241970
Ti      5.13221130     2.33452557     1.31182134     0.10486428     0.48486396    -0.35238782
Ti      0.81863999     3.39576021     8.85708885    -0.10486428    -0.48486396     0.35238782
Ti      2.15688945     0.53061920     1.31186213     0.10421405    -0.48472460    -0.35241970
Ti      3.79396184     5.19966646     8.85704806    -0.10421405     0.48472460     0.35241970
Ti      0.81862518     0.53061712     6.39627623    -0.10486428    -0.48486396    -0.35238782
Ti      5.13222605     5.19966861     3.77263384     0.10486428     0.48486396     0.35238782
O       1.88348306     2.01773091     5.18911690     0.95572054     0.91121935    -0.17029400
O       4.06736823     3.71255459     4.97979312    -0.95572054    -0.91121935     0.17029400
O       1.09198348     2.01775408     0.10469463    -0.95518780     0.91092882    -0.17088921
O       4.85886787     3.71253147    10.06421515     0.95518780    -0.91092882     0.17088921
O       4.06735342     0.84741173     0.10466166    -0.95572054    -0.91121935    -0.17029400
O       1.88349787     4.88287377    10.06424813     0.95572054     0.91121935     0.17029400
O       4.85885306     0.84738861     5.18914993     0.95518780    -0.91092882    -0.17088921
O       1.09199811     4.88289694     4.97976015    -0.95518780     0.91092882     0.17088921
O       0.21622523     3.48548456     2.74687626    -0.03175571    -0.13558820     0.17449441
O       5.73462606     2.24480099     7.42203376     0.03175571     0.13558820    -0.17449441
O       3.19164131     2.24474766     2.33761108    -0.03147880     0.13572781    -0.17451035
O       2.75920993     3.48553789     7.83129882     0.03147880    -0.13572781     0.17451035
O       0.21621042     0.62034170     2.33757857    -0.03175571    -0.13558820    -0.17449441
O       5.73464081     5.10994386     7.83133127     0.03175571     0.13558820     0.17449441
O       2.75919518     0.62039503     7.42206620     0.03147880    -0.13572781    -0.17451035
O       3.19165611     5.10989046     2.74684381    -0.03147880     0.13572781     0.17451035
