# total energy = -19953.30239924 eV

CRYSTAL
PRIMVEC
        5.61569147     0.00000000     0.00000000
        0.00003078     5.97679393     0.00000000
        0.00000000     0.00000000    10.05085291
PRIMCOORD
24 1
Ti      2.03543630     3.54184256     3.72879482     0.02329189    -0.56147952     0.46694079
Ti      3.58028595     2.43495143     6.32205838    -0.02329189     0.56147952    -0.46694079
Ti      4.84318372     2.43495349     1.29659162     0.02477850     0.56138824    -0.46694207
Ti      0.77253853     3.54184073     8.75426169    -0.02477850    -0.56138824     0.46694207
Ti      2.03542102     0.55344570     1.29663193     0.02329189    -0.56147952    -0.46694079
Ti      3.58030122     5.42334846     8.75422139    -0.02329189     0.56147952     0.46694079
Ti      0.77252325     0.55344348     6.32201808    -0.02477850    -0.56138824    -0.46694207
Ti      4.84319900     5.42335068     3.72883512     0.02477850     0.56138824     0.46694207
O       1.77741264     2.10453080     5.12887341     0.96505493     0.87339096     0.04690311
O       3.83830960     3.87226324     4.92197978    -0.96505493    -0.87339096    -0.04690311
O       1.03048760     2.10455487     0.10347917    -0.96447592     0.87339584     0.04637500
O       4.58523470     3.87223917     9.94737374     0.96447592    -0.87339584    -0.04637500
O       3.83829433     0.88386622     0.10344656    -0.96505493    -0.87339096     0.04690311
O       1.77742792     5.09292777     9.94740635     0.96505493     0.87339096    -0.04690311
O       4.58521943     0.88384215     5.12890602     0.96447592    -0.87339584     0.04637500
O       1.03050276     5.09295190     4.92194717    -0.96447592     0.87339584    -0.04637500
O       0.20404976     3.63542489     2.71498618     0.33703807    -0.19768705     0.23181358
O       5.41167249     2.34136910     7.33586702    -0.33703807     0.19768705    -0.23181358
O       3.01189999     2.34131340     2.31047237     0.33763636     0.19823676    -0.23196553
O       2.60382225     3.63548059     7.74038065    -0.33763636    -0.19823676     0.23196553
O       0.20403448     0.64702787     2.31044027     0.33703807    -0.19768705    -0.23181358
O       5.41168776     5.32976612     7.74041275    -0.33703807     0.19768705     0.23181358
O       2.60380698     0.64708357     7.33589905    -0.33763636    -0.19823676    -0.23196553
O       3.01191527     5.32971042     2.71495408     0.33763636     0.19823676     0.23196553
