# total energy = -4978.37845396 eV

CRYSTAL
PRIMVEC
        4.77295101     0.00000000     0.00000000
       -0.00001063     4.77295101     0.00000000
       -2.38651293    -2.38651825     6.09134700
PRIMCOORD
6 1
Ti     -0.00021019     3.57989403     1.52283658    -0.00410940     0.00410940    -0.00000000
Ti      2.38663750    -1.19346141     4.56851002     0.00410940    -0.00410940    -0.00000000
O       0.00004768     1.19322964     0.99223059    -0.00053299    -0.00236876    -1.33627120
O       2.38637950     1.19320285     5.09911609     0.00053299     0.00236876     1.33627120
O      -0.00002696    -1.19320892     4.03790402    -0.00236876    -0.00053299    -1.33627120
O       2.38645407     3.57964135     2.05344265     0.00236876     0.00053299     1.33627120
