# total energy = -19960.35853670 eV

CRYSTAL
PRIMVEC
        7.60600008     0.00000000     0.00000000
        0.00000000     7.60600008     0.00000000
       -1.89786986    -1.89786986     4.85670466
PRIMCOORD
24 1
Ti      3.92569698     6.44745201     1.24954598    -1.79181711     2.29429982    -1.08782849
Ti      3.76954900     2.78108500     1.25778802    -0.25213198    -2.33447923    -1.31695681
Ti     -0.00169601     6.74576298     1.14874099     1.61148321    -0.43408131     1.80085146
Ti     -0.02434999     2.96612601     1.21054000     0.20560040     0.30775422     0.03366295
Ti      5.60703821     2.87748120     3.53434379     1.06215551    -0.31018340     0.98617192
Ti      5.70902421    -0.88449077     3.66976580     0.37180788     0.23512927     0.02944583
Ti      1.86857525     2.74929521     3.57011284    -1.05042022     0.55805095     0.70736936
Ti      1.97827523    -0.96879480     3.61889779    -0.77297134    -0.67174749     0.64748012
O       3.78306699     4.55082899     0.88773701     0.61350864     2.33311860    -0.81675210
O       3.81174702     0.80468000     0.85451701     0.35686797     2.00257026     0.08554835
O      -0.00765899     4.81346400     0.80426401    -0.17685648    -0.32394806    -0.65379938
O      -0.16495497     1.02386199     0.85934702     1.02414636    -0.51509628    -0.79012163
O       5.59142325     4.83290825     4.10662882     0.19416978    -0.31649417    -0.83606109
O       5.59021820     1.04618422     4.04883679     0.64731223    -0.05538878    -0.01647975
O       1.87753623     4.81589224     4.11703980     0.83467553    -2.75738549     0.35468150
O       1.84752124     0.92869523     3.99979683     0.19854040     0.86025493     0.74685124
O       3.73101722     2.93546024     3.24276279     1.17257157    -0.13038480    -0.45074695
O       3.81411821    -0.70058676     3.22062381     2.12987128    -0.95813172    -0.11507131
O       0.05612824     2.95992321     3.24029280    -1.99096790    -0.00457759    -0.34625008
O       0.17078423    -0.93102678     3.27639581    -2.95571609     0.36365285    -0.54226386
O       5.80905702     6.48143699     1.73865599    -0.62032103     0.17160654    -0.04293590
O       5.69637597     2.62840202     1.56113898    -0.56321913     1.24755731     1.59933937
O       2.01530001     6.65054500     1.63707698    -0.92097078    -0.53992672    -0.48631792
O       1.83437198     2.96901199     1.57344701     0.67268183    -1.02216995     0.51018290
