# total energy = -4988.82178846 eV

CRYSTAL
PRIMVEC
        3.61189935     0.00000000     0.00000000
        0.71522008     3.54037811     0.00000000
       -2.16359262    -1.77021597     4.63304171
PRIMCOORD
6 1
Ti      0.53629056     2.65541897     1.15826055     0.00092534    -0.00092534    -0.00000000
Ti      1.62723626    -0.88525684     3.47478130    -0.00092534     0.00092534    -0.00000000
O       0.17884287     0.88508935     0.75468469     0.00017921     0.00093357     0.46929335
O       1.98468384     0.88507269     3.87835721    -0.00017921    -0.00093357    -0.46929335
O      -0.17881916    -0.88506996     3.07120544     0.00093357     0.00017921     0.46929335
O       2.34234575     2.65523191     1.56183641    -0.00093357    -0.00017921    -0.46929335
