# total energy = -19072.96673261 eV

CRYSTAL
PRIMVEC
        5.93400000     0.00000000     0.00000000
        0.00000000     9.29699974     0.00000000
        0.00000000     0.00000000     4.64899994
PRIMCOORD
22 1
Ti      4.34965401     6.96078802     2.49509899     0.84840574    -0.11999960    -0.78464210
Ti      4.30639699     2.32886399     2.14021003     1.78284396     1.02116285     0.32676368
Ti      1.53252700     7.08887802     2.51774900    -0.53528177    -0.48849667    -0.55224565
Ti      1.58223098     2.37558098     2.07755798    -1.84820965     2.26684428     0.89197052
Ti      3.01672700     4.67552199     0.00588900    -0.11486253     0.11299128    -0.21587273
Ti      2.98667402     0.16304300     0.11716302     0.61086066    -0.86028809    -0.94576882
Ti      5.85939898     4.61463703     4.41521499     0.39130739    -1.03309534     0.89309667
Ti      0.02804401     9.01783297     0.07723501    -0.44616344    -1.22475496     0.42991792
O       4.50983802     5.49478601     1.01845999    -0.37343565     0.56938772    -0.71078096
O       4.59665299     0.83595998     0.80753501     0.19680182     1.72485271     0.70064335
O       1.47271801     0.85660001     0.91455598    -1.56097284     0.08787700    -0.63940377
O       4.27226400     8.35312697     3.85888597     1.61029588    -0.41278691     0.61018677
O       4.29267299     3.85574298     3.63266598     1.73134963    -1.73249146    -1.09571613
O       1.67479800     8.22429798     3.83547401    -0.84382120     2.15493466     2.95212015
O       1.62183598     3.59831301     3.60750800    -1.67997486     0.89717341     0.43988506
O       2.92363901     5.84146701     3.11173802    -0.46547860     1.07195141     0.07597870
O       2.94416198     1.41382000     3.01001899     0.47276048    -1.11175648     1.75065374
O       0.05614502     6.25607802     3.52366901    -0.47982125    -0.93961797    -0.26381765
O       2.96870501     8.07650401     1.82197701     0.43862368    -0.31408531    -2.93781735
O       3.00378999     3.05873499     1.07196198     0.17487185     0.38376866     0.24186376
O       0.03590002     8.09290099     1.70289699    -0.21595166    -0.96161968    -1.01842025
O       5.89157200     3.33581400     1.41489302     0.30585289    -1.09195203    -0.14859516
