# total energy = -4986.61005149 eV

CRYSTAL
PRIMVEC
        4.65790566     0.00000000     0.00000000
       -0.00000799     3.44280003     0.00000000
       -2.32898134    -1.72144505     5.28813443
PRIMCOORD
6 1
Ti     -0.00020115     2.58222680     1.32203330    -0.00218955    -0.00429452     5.54046274
Ti      2.32911726    -0.86087182     3.96610034     0.00218955     0.00429452    -5.54046274
O       0.00004858     0.86069186     0.86139374     0.00092251     0.00223018    -1.50515957
O       2.32886736     0.86066307     4.42673990    -0.00092251    -0.00223018     1.50515957
O      -0.00002085    -0.86068855     3.50546078    -0.00258936    -0.00008408    -1.90349662
O       2.32893673     2.58204336     1.78267291     0.00258936     0.00008408     1.90349662
