# total energy = -19960.36170356 eV

CRYSTAL
PRIMVEC
        7.60600008     0.00000000     0.00000000
        0.00000000     7.60600008     0.00000000
       -1.89786986    -1.89786986     4.85670466
PRIMCOORD
24 1
Ti      3.79345898     6.64006501     1.16907801    -0.08666935     0.41441750     0.41045723
Ti      3.70632100     2.87108102     1.19214300    -0.26341090    -0.51346929     0.39749681
Ti      0.09000802     6.76181399     1.16611901    -0.03575352    -1.30493844     1.61068334
Ti     -0.08166501     2.88946998     1.19642902     0.41695415     0.99647794     0.64732817
Ti      5.63676024     2.96740223     3.64971681     1.92251405    -1.10186312     0.53018661
Ti      5.67273424    -0.97358777     3.55698279     2.18874879     0.79654657     0.46118023
Ti      1.91739524     2.74638421     3.72500080    -1.36483488     0.43469657    -2.77269462
Ti      1.97230923    -1.08828577     3.69331382    -1.55043672    -0.18372493    -0.20173166
O       3.68342001     4.81122701     0.67178999     0.50547187    -2.12021987     1.83197493
O       3.75827001     0.89733301     0.86614801     0.07779878     0.53324391     0.05862863
O      -0.02894700     4.78968801     0.82133500    -0.26280412     1.48272515    -0.15039674
O       0.09507500     1.00160902     0.75331901    -0.50241637    -0.28824263    -0.34341621
O      -1.54622179     4.82441321     4.00622882    -0.93453541    -0.07256684     0.71078687
O       5.89355424     1.13549521     4.12287980    -1.06259542    -2.20326345    -0.85376700
O       1.60526422     4.68393723     4.07328383     1.00766070     1.10429899     0.17554779
O       1.86230820     0.86415920     4.05623184     0.51349423     0.18252937     0.54360160
O       3.81428623     2.91367021     3.32638179    -1.44954093    -0.00275648    -0.41552385
O       3.88290522     6.28700425     3.11334683    -0.32636593     0.45046104     1.73926323
O      -0.03297076     2.78200921     3.12659780     0.76688580    -0.00775111     0.35564052
O       0.04203022    -0.99058579     3.11438883    -0.20251147     0.77464487     0.38891061
O       5.71973899     6.76708200     1.64436200    -0.02980758     0.01395390    -1.08325630
O       5.62514200     3.00362600     1.68086200    -0.47969681    -0.30319642    -1.05717888
O       1.96167001     6.44228698     1.86102198    -0.06206954     0.95977954    -2.79184472
O       1.88788699     2.90225702     1.66396902     1.21392058    -0.04178224    -0.19187687
