# total energy = -4968.09424083 eV

CRYSTAL
PRIMVEC
        4.54000818     0.00000000     0.00000000
       -0.00000687     2.72400491     0.00000000
       -2.27002966    -1.36205215     4.94426473
PRIMCOORD
6 1
Ti     -0.00019460     2.04310050     1.23606585    -0.01364022    -0.01950517    25.15159358
Ti      2.27016610    -0.68114784     3.70819827     0.01364022     0.01950517   -25.15159358
O       0.00004808     0.68099248     0.80538022     0.01229245     0.01495483   -15.49210505
O       2.26992331     0.68096013     4.13888395    -0.01229245    -0.01495483    15.49210505
O      -0.00001870    -0.68100154     3.27751258    -0.00183371    -0.00003651    -0.67982872
O       2.26999004     2.04295410     1.66675154     0.00183371     0.00003651     0.67982872
