# total energy = -19519.23003784 eV

CRYSTAL
PRIMVEC
        7.60600008     0.00000000     0.00000000
        0.00000000     7.60600008     0.00000000
       -1.89786986    -1.89786986     4.85670466
PRIMCOORD
23 1
Ti      3.80959100     6.65383500     1.18712100    -0.59514581     0.46780597     0.71373619
Ti      3.83325300     2.80411898     1.24722299    -0.77171819    -0.28925204     0.32862593
Ti     -0.02902299     6.58222499     1.18057000     0.32472659     1.08065640    -0.35709679
Ti      0.00361798     2.81711102     1.14781699     0.51933346    -0.81571620     0.84629872
Ti      5.68271320     2.88753922     3.66369381    -0.50064077     0.38175163    -0.25436267
Ti      5.74735220    -0.89187179     3.59922881    -1.21862853    -0.56079843     0.54133877
Ti      2.01272720     2.86696724     3.74618583    -0.08392444     0.01526644    -1.15906351
Ti      1.84290121    -0.89229979     3.59212883     1.08363605    -0.34566361     0.06746937
O       3.65854799     4.79921701     0.76443199     0.09407927    -1.38786169     1.00273266
O       3.77082400     0.89537500     0.72661101     0.14503161     1.30582136     0.83594180
O      -0.02433199     4.74221499     0.67801401     0.15428579     0.65295632     1.50522025
O      -0.12149899     0.91880400     0.80920499     0.00770817    -0.26661501    -0.40117966
O       5.74344825     4.80516121     3.91016780     0.08193595    -0.80835488     0.83485910
O       5.91068620     0.95707722     4.17306883     0.20944240     0.03618135    -2.17183993
O       1.99485922     4.78836825     4.04391984    -0.40013065    -0.77821022    -0.34556462
O       1.72103920     0.94013323     4.10800283     0.01677003     0.80788231     0.35070169
O       3.83079820     2.76370921     3.29650682     0.17356958    -0.07578612    -0.61217423
O       3.72063625    -0.70284677     3.23973383     0.89532813    -0.33793024    -0.65285759
O      -0.02449175    -0.96531477     3.18623380    -0.41625379     0.03060360    -0.17434014
O       5.66093200     6.55858198     1.61523000     0.02735372     0.09505423     0.17846471
O       5.77540902     2.92908800     1.71192201    -0.20326275    -0.29833601    -0.91036909
O       1.81229799     6.55092701     1.61103902     0.51393389     0.32803355    -0.20379574
O       1.81782202     2.64028999     1.76826102    -0.05742895     0.76251106     0.03725478
