# total energy = -4988.53558798 eV

CRYSTAL
PRIMVEC
        3.72581049     0.00000000     0.00000000
        1.26527703     3.50438837     0.00000000
       -2.49557774    -1.75221805     4.83175704
PRIMCOORD
6 1
Ti      0.94885035     2.62842569     1.20793931     0.00030108    -0.00030108     0.00000000
Ti      1.54665877    -0.87625583     3.62381783    -0.00030108     0.00030108     0.00000000
O       0.31635807     0.87609227     0.78705379    -0.00001980     0.00016944    -1.09570327
O       2.17915087     0.87607747     4.04470345     0.00001980    -0.00016944     1.09570327
O      -0.31632785    -0.87607110     3.20293231     0.00016944    -0.00001980    -1.09570327
O       2.81183674     2.62824079     1.62882493    -0.00016944     0.00001980     1.09570327
