# total energy = -4982.66417443 eV

CRYSTAL
PRIMVEC
        3.52817405     0.00000000     0.00000000
        1.66031109     3.11309801     0.00000000
       -2.59427572    -1.55656890     4.65951650
PRIMCOORD
6 1
Ti      1.24515007     2.33494340     1.16487881     0.00052836    -0.00052836     0.00000000
Ti      1.34905922    -0.77841440     3.49463711    -0.00052836     0.00052836     0.00000000
O       0.41511433     0.77827054     0.75899706     0.00097933     0.00091737    -3.26963942
O       2.17909481     0.77825845     3.90051891    -0.00097933    -0.00091737     3.26963942
O      -0.41508080    -0.77825038     3.08875531     0.00091737     0.00097933    -3.26963942
O       3.00928988     2.33477929     1.57076061    -0.00091737    -0.00097933     3.26963942
