# total energy = -19960.14771110 eV

CRYSTAL
PRIMVEC
        5.93400000     0.00000000     0.00000000
        0.00000000     9.29699974     0.00000000
        0.00000000     0.00000000     4.64899994
PRIMCOORD
24 1
Ti      4.46931702     6.81591501     2.18847200    -0.56776278     1.00288230     0.05047926
Ti      4.41360502     2.28994898     2.28295998    -0.52627647     2.74224426     0.26066676
Ti      1.44716098     7.00621699     2.39390898     0.41597534     0.67766540    -0.77832772
Ti      1.43387101     2.23930101     2.37822501     0.51348754     0.85506310    -0.41080099
Ti      2.92076102     4.70427002     4.57439500     0.75845129    -1.17761222     0.14767085
Ti      2.99155700     0.11178002     0.06425302     0.51453887    -1.26556841    -0.33943357
Ti      0.07995598     4.59560400     4.61965902    -1.24065852    -0.72831383    -0.25335043
Ti      5.92761601     0.07950200     4.61408102    -0.47102370    -1.48389911     0.26097144
O       4.34693599     5.51364001     0.89695999     1.20470806     0.45372249     0.10346920
O       4.46130998     0.92624900     1.05188499     0.32570901    -0.84746908    -1.11199996
O       1.51472098     5.59086401     0.80069900    -0.40940436    -0.06662579     0.52966082
O       1.44249702     0.86440601     1.08028800     0.57946465     0.10912820    -0.25298970
O       4.43253200     8.40047199     3.84343702    -0.13351718     0.73092402     0.15964397
O       4.52182198     3.69637098     3.73818901     0.02751467     0.83542732     0.46345283
O       1.57649899     8.63286298     3.79742400    -0.77639837    -1.58599046    -1.15061177
O       1.45289599     3.76115001     3.65263602     0.16306508     0.05325554     1.04002498
O       2.85326298     5.97628402     3.08420901     0.94382738    -0.16980831     1.08167224
O       3.08592698     1.46029701     3.23817799    -1.00312218    -0.38813002     1.09948100
O       5.87254601     6.09688600     3.34510403     0.17410232     0.51038242    -1.07373833
O       5.86594601     1.44698301     3.36244098     0.85235495     0.35547546    -0.54497714
O       2.91956402     7.75790401     1.45845198     0.41883543     1.33245671    -0.25970954
O       3.02669897     3.36894399     1.45484802    -0.23053908    -1.45891904    -0.00702400
O       0.05727100     7.81739602     1.30521399    -0.66371639    -0.63871548     1.36042364
O       0.18452400     3.21239902     1.44167902    -0.86961477     0.15242508    -0.37465384
