# total energy = -19074.06256220 eV

CRYSTAL
PRIMVEC
        7.60600008     0.00000000     0.00000000
        0.00000000     7.60600008     0.00000000
       -1.89786986    -1.89786986     4.85670466
PRIMCOORD
22 1
Ti      3.71970802     7.01084798     1.19342900    -2.86510627    -0.08045756    -1.82482803
Ti      4.02140800     2.80639698     1.26384498     0.32443426     0.03879565     0.56568327
Ti     -0.16230200     6.60684999     1.41899001     1.61199255     0.79308586    -0.76924478
Ti      0.02446699     2.89064602     1.21173102    -0.58456803    -2.82945200     1.75185804
Ti      5.67380223     2.76098823     3.70842580     1.93980524     1.72090760    -0.89872559
Ti      5.71257822    -0.91269179     3.83897483     1.22329071    -1.89131756     1.68418992
Ti      2.05905921     2.76886122     3.87521379    -0.53985293     0.35854304    -1.47515736
Ti      1.69467924    -0.72627175     3.65551781    -0.51203281    -1.42298349    -0.36864079
O       3.56113201     4.46611200     0.81312101    -0.68763511     2.61860166     0.11939230
O       3.27797001     1.24942702     0.82303599    -0.38268314    -1.51548847     0.33136287
O       0.06247599     4.63403899     1.05447801     0.06826719     3.60159493    -0.99584699
O       0.21175102     0.99764797     0.89617400    -0.96991149    -0.67964026    -0.14315651
O       5.72824520     4.69019422     4.19234882    -0.49131768     0.00998205     0.06605295
O       5.62917020     0.93811024     4.05941081    -0.02426300     0.87227021     0.42775716
O       1.98422720     5.06822422     4.10802479     0.80647334    -1.96761893     0.76570874
O       2.55830921     0.79719023     3.93128880     0.10679364     2.08813840     0.91430853
O       3.92997321     2.78349123     3.24588684    -2.05613973     1.00413006     0.28220722
O       0.26337522     2.79306325     3.12465381     0.71812558    -0.18226737     0.81953275
O       5.29510399    -0.73089798     2.03018101     0.94923261    -0.25031267    -1.79549585
O       5.77858101     2.69121002     1.49722898     1.43933751     0.02697320     1.52595621
O       1.85904699    -0.63700500     1.78637000     0.55827566    -1.66876587    -0.85692046
O      -0.11178578    -0.60382776     3.32255779    -0.63251835    -0.64471824    -0.12599387
