# total energy = -19960.33777005 eV

CRYSTAL
PRIMVEC
        7.60600008     0.00000000     0.00000000
        0.00000000     7.60600008     0.00000000
       -1.89786986    -1.89786986     4.85670466
PRIMCOORD
24 1
Ti      3.82199200     6.72052298     1.19065601    -0.77500303    -0.80393798    -1.15849066
Ti      3.76853102     2.77610899     1.23349100     0.40170905     1.45691820    -1.18058493
Ti     -0.09470299     6.71589998     1.28400002     1.10185670    -0.05926524    -0.94778148
Ti     -0.04768601     2.88598201     1.29934701    -0.27318161     0.23546274    -0.25470437
Ti      5.61064921     2.95423323     3.67632983     2.69510152    -1.36291915     0.72843828
Ti      5.59952024    -0.92263678     3.59831883     2.04432011     1.68670138     2.15537483
Ti      2.07843022     2.74846123     3.61415182    -2.13117046    -0.37180274     0.60871147
Ti      1.94725824    -0.99304080     3.57865080    -0.80085419     0.31634916    -0.16754883
O       3.83901198     4.64392302     0.75564702    -0.09411938     1.41661589    -0.31907813
O       3.90398098     1.02187598     0.72098601    -0.34449736    -3.23868513    -0.08693803
O      -0.14347699     4.76460501     0.79581199     0.19958916     1.09482550     0.77366143
O      -0.05730900     1.12238802     0.76297199    -0.34220650    -3.22758027     0.17250592
O       5.56380924     4.80168425     4.10030579     0.08521950     0.36204128     0.06382895
O       5.66360122     0.96190523     4.08605981     0.10686769     0.00181623    -0.47488833
O       2.19108021     4.71637924     4.02778681    -0.63188252     0.06301365     0.30627892
O       2.13439622     0.85781225     4.06875979    -0.61126381     0.60648335    -0.89942133
O       3.90193222     2.54993324     3.10998279    -3.00953059     0.46428252     1.26243937
O       3.84999320    -0.92990979     3.22095481    -2.09248794    -0.13298907    -1.39543950
O      -0.01988976     2.78560524     3.23109083     1.38256470     0.41989036     0.59136037
O      -0.01433779    -0.94765279     3.21716384     0.67837579    -0.19865353    -0.20004193
O       5.65309801     6.75954202     1.59210199     0.08611528    -0.16556728     0.16029060
O       5.67806999     2.89913000     1.81480301     0.35627301     0.30333681    -2.13093058
O       1.86406899     6.64106902     1.49097198     1.05679038     0.24693655     0.96998837
O       1.89118800     2.64794300     1.52928801     0.91141501     0.88672650     1.42297012
