# total energy = -19516.50677941 eV

CRYSTAL
PRIMVEC
        5.17600016     0.00000000     0.00000000
        0.00000000     5.50899976     0.00000000
        0.00000000     0.00000000     9.26300011
PRIMCOORD
23 1
Ti      1.85528501     3.23610902     3.48659999    -1.10787565     0.37599827     0.96523388
Ti      3.34832402     2.28452698     5.77176003     0.77600267    -0.38707895    -1.57742457
Ti      4.36687100     2.02061703     1.52020199     2.67861920    -0.04449039    -1.73047545
Ti      0.77914698     3.36574300     7.77577502    -1.47596700     1.87042914     1.02728285
Ti      2.16940997     0.24019498     1.34334301    -1.62859597     0.97284640    -2.80211499
Ti      3.18939500     5.07060499     7.79150200     1.21841359     1.28328486    -0.56176877
Ti      0.69759400     0.65037397     5.96612799     0.10516279    -1.79945304    -3.08210206
Ti      4.50072702     5.00210601     3.43161202     1.78485071     0.18121527     2.02439996
O       1.73090100     1.97426200     4.75650400    -1.48569066    -0.37332586    -0.33975598
O       3.42131799     3.65112400     4.50386599     0.68486526     0.26120130     0.31395110
O       4.88791998     2.98516502     9.19552397     0.24340231     0.24389725     0.89028157
O       3.71501702     0.73004801     0.26406098    -0.82832156    -0.39956578    -1.21689535
O       2.03814301     4.57944298     9.01132902    -2.59320661    -0.94988696     2.03510450
O       4.19046902     0.77873999     4.70552899    -0.17967313     1.23862632     0.44448657
O       0.91603900     4.81761000     4.56372599     0.61587817    -1.30311964    -0.89169105
O       5.15954000     3.31366301     2.67273400     1.77258603    -0.32443169    -0.21656256
O       5.01890601     2.07938200     6.78859501    -0.54218441     0.34567415     0.00032010
O       2.80835002     1.69074798     2.36055102    -1.17514448     2.61830547     0.75686852
O       2.46594498     3.36985100     6.99115099     1.03405694     0.81973201     0.39020027
O       0.41528301     0.56477903     2.10300299    -0.71911237     0.61781755    -0.51120466
O       4.94676798     4.81627398     6.95395200    -0.04958297    -0.91189118     1.51446774
O       2.34835301     0.93173000     6.76422302     0.77741730    -1.56997968     2.01056717
O       2.85977102     4.70770899     2.46884201     0.09410010    -2.76580457     0.55683096
