# total energy = -39035.16280332 eV

CRYSTAL
PRIMVEC
        7.60600008     0.00000000     0.00000000
        0.00000000     7.60600008     0.00000000
       -3.79573973    -3.79573973     9.71340985
PRIMCOORD
46 1
Ti      1.94478847     4.64996442     6.06949261    -0.61981967     1.32604283    -0.09232835
Ti      3.77467599     6.69259898     1.26097001     0.94607658     1.61840025    -0.13950502
Ti      1.93050544     0.99617347     6.10077963     1.67399987    -0.45700990    -2.74558181
Ti      3.76138401     2.92196802     1.20840599     1.02257644    -2.52862305    -0.08643538
Ti     -1.89829554     4.79181943     6.11987362    -0.16333556    -0.39948813    -1.43291360
Ti      0.05914000     6.68585599     1.17741499    -0.95322271    -0.94954346    -0.03845678
Ti     -1.85056253     0.97136543     6.06810463    -1.30090515     0.32683258     0.13304461
Ti     -0.01711899     2.80982499     1.34604901    -0.78127267     0.96129700    -1.83358624
Ti      3.72518246     0.99887043     8.43349164     1.64286302    -0.53409597     0.87759214
Ti      5.65675901     2.83817497     3.58532197     0.33032851     0.14528332     2.27058138
Ti      3.82657346    -2.80944954     8.51967662    -1.38855537     0.79821521     0.09800123
Ti      5.67205203    -0.91278101     3.69726699    -0.28916128    -0.15694405    -1.52084614
Ti      0.02864944     0.87877243     8.28200762    -1.01426124    -0.08697377     4.41917184
Ti      1.93472198     2.77141202     3.43736402    -0.14617395     0.51295970     2.88800632
Ti     -0.02106856    -2.91495357     8.47877662     1.13540960     0.42457722     1.08501056
Ti      1.83013301    -0.97032899     3.75086598     0.59528851     0.96425146     0.68299350
O       1.99913344    -0.79530657     5.74089063    -0.86154408    -2.72424910    -2.09355932
O       3.88184301     0.94291999     0.98830800    -0.55369678     0.18882549    -1.73312138
O      -2.08611054     2.73274143     5.74878860     0.80904033     2.43299006    -0.57609779
O      -0.03678300     4.73046699     0.70431698     0.22049403     0.28839843     0.79984864
O      -1.76801855    -0.91445454     5.60970060    -0.57581676    -0.11379295     0.90152423
O       0.17145200     1.00464100     0.75739102    -0.45935475    -0.65026797     0.57886018
O       3.62026143     2.88876543     8.84502162     0.46027752    -0.10157867     0.27456692
O       5.94995099     4.83592498     4.18736799    -1.16196114    -1.65968344    -0.52117772
O       3.61526346    -0.93865355     9.01681060     0.39388724    -0.02042125    -0.77502925
O       5.74155702     0.99500399     3.97938800     0.20222428    -0.62253244     0.57217814
O      -0.05966955     2.64656746     9.09932161     0.48185268     0.70148771    -1.18529699
O       1.94894399     4.54667998     4.11852801    -0.18928520     1.56419392     0.47309756
O      -0.06333357    -0.97447154     8.94265562     0.09359873     0.81521844     0.16087476
O       1.96668497     1.03835298     3.92074198    -0.70552511    -1.78106013     1.25357395
O       1.96462346     0.87556244     7.91659961    -0.64448067     0.65678752     2.38611960
O       3.80183802     2.71087202     3.26520398     0.42713341     1.34370400    -0.26885779
O       1.88593845    -2.82269056     8.03578964    -1.17985268    -0.52817189     0.65956431
O       3.73122498    -0.89035199     3.21055103    -0.34083687    -0.88356147     1.17525812
O      -1.82227356     1.14985343     7.98589765    -1.17059645    -0.92862444     0.56671634
O       0.00136898     2.82792301     3.28932700    -0.32166569     0.09848331    -0.72509738
O      -1.96900155    -2.66252353     8.08136361     1.03785086    -0.62194057     0.07995491
O      -0.07058902    -0.91989501     3.10985600     1.49160343     0.06796071     0.72730879
O       3.71583143     4.75723945     6.46404061     1.64301189    -0.21734134    -0.18764921
O       5.61139498     6.60782801     1.61612600     0.77418362    -0.47066658     0.18120113
O       3.82460746     0.85033445     6.44127662     0.50310980     0.46206880     0.10126808
O       5.64196100     2.71529600     1.77499798     0.79592230     0.99504660    -2.16997485
O      -0.02246357     4.79794244     6.49218961     0.01824558    -0.83545946     0.60394747
O       1.86156799     6.64523301     1.45698298    -0.17006337    -0.69341855     0.88972544
O       0.09869743     0.84416445     6.56389064    -1.14762415     0.45017333    -4.26721985
O       1.93531101     2.81879597     1.64498003    -0.55996616     0.82225118    -2.44725583
