# total energy = -4988.28277043 eV

CRYSTAL
PRIMVEC
        3.20816038     0.00000000     0.00000000
        0.50141676     5.00163552     0.00000000
       -0.00000334    -0.00006523     5.03301712
PRIMCOORD
6 1
Ti      1.85478696     2.50078514     2.51650856     0.00000000     0.00000000     0.00000000
Ti      0.00000000     0.00000000     0.00000000     0.00000000     0.00000000     0.00000000
O       1.70179828     0.97473243     0.98086090     0.27159550    -0.55923828    -0.60504430
O       2.00777569     4.02683786     4.05215617    -0.27159550     0.55923828     0.60504430
O       0.15298731     1.52602627     3.49737048    -0.27148828     0.55963218    -0.60533227
O       0.34842634     3.47554389     1.53564659     0.27148828    -0.55963218     0.60533227
