# total energy = -19518.25335375 eV

CRYSTAL
PRIMVEC
        5.93400000     0.00000000     0.00000000
        0.00000000     9.29699974     0.00000000
        0.00000000     0.00000000     4.64899994
PRIMCOORD
23 1
Ti      4.46999299     7.05408901     2.25223701     0.13878743     0.27855728     0.23552265
Ti      4.47282102     2.34289899     2.34788802     0.17303839    -0.70827953     0.05371268
Ti      1.39617798     6.98205899     2.21448302    -0.06530219     0.24850673     0.47186857
Ti      1.49261899     2.32801699     2.34194499    -0.29537950    -0.36798362     0.49853040
Ti      2.97612900     4.52596401     0.20930500     0.15665506    -0.22847037    -0.02235009
Ti      2.99057501     9.29362598     4.59055798     0.00386514     0.20452053     0.00274388
Ti      5.92693099     4.60183898     0.01482601    -0.04300377     0.00286164    -0.61779261
Ti      0.03818601     0.04500002     4.59982599    -0.15791670     0.20095056    -0.11729248
O       4.52366400     5.50502897     0.93943001    -1.05061356     0.87845552     0.09909678
O       4.42696998     0.95366498     0.88293002     0.20211604    -0.19002696    -0.14500719
O       1.42762201     5.48710902     0.96203397     1.01078665     0.64050343    -0.07507058
O       1.51496599     0.88146600     0.79945998    -0.72225837     0.95689116     1.04461980
O       4.41112599     8.42529299     3.69327900     0.42640836    -0.88022932    -0.61069791
O       4.43850202     3.68065601     3.85663999    -0.41911697     0.28283225    -0.34050057
O       1.39099802     8.44355299     3.60498599     0.52540307    -0.45801932     0.22075808
O       1.56361701     3.62588198     3.81974199    -0.02487415     0.75001730     0.02717914
O       2.99747400     1.40906699     3.20486200    -0.43190898    -0.15058340    -0.11870505
O       5.91031398     6.11181901     3.24523500    -0.01285244    -0.26428559     0.01972191
O       5.90528298     1.49045402     3.19075202     0.60398372    -1.05281546     0.68753844
O       2.92822501     7.92332498     1.38174202     0.24829898    -1.09047982     0.47926332
O       2.98786800     3.26223497     1.54926800    -0.40923030     0.57195497    -0.64048286
O       5.92959598     7.80944900     1.33347100    -0.29350413     0.77085018    -0.63998201
O       5.92180400     3.34567898     1.54658999     0.43661796    -0.39572815    -0.51267430
