# total energy = -19919.82193735 eV

CRYSTAL
PRIMVEC
        7.63423526     0.00000000     0.00000000
        0.00002881     4.87508076     0.00000000
        0.00000000     0.00000000    11.65960719
PRIMCOORD
24 1
Ti      2.76705995     2.88896833     4.32563113     0.52474255    -0.32192538     1.87483601
Ti      4.86720362     1.98611238     7.33397619    -0.52474255     0.32192538    -1.87483601
Ti      6.58404623     1.98611402     1.50412595     0.52429801     0.32210818    -1.87558034
Ti      1.05021740     2.88896687    10.15548143    -0.52429801    -0.32210818     1.87558034
Ti      2.76704579     0.45142801     1.50417272     0.52438723    -0.32026701    -1.87535306
Ti      4.86721777     4.42365282    10.15543472    -0.52438723     0.32026701     1.87535306
Ti      1.05020318     0.45142624     7.33392942    -0.52354596    -0.32020454    -1.87612336
Ti      6.58406038     4.42365459     4.32567783     0.52354596     0.32020454     1.87612336
O       2.41629366     1.71659876     5.94980833     0.90532972     1.27239649    -1.62929736
O       5.21796996     3.15848188     5.70979899    -0.90532972    -1.27239649     1.62929736
O       1.40088862     1.71661845     0.12004220    -0.90445401     1.27289014    -1.63020676
O       6.23337507     3.15846225    11.53956474     0.90445401    -1.27289014     1.63020676
O       5.21795581     0.72094143     0.12000436    -0.90543180    -1.27320767    -1.63036874
O       2.41630782     4.15413921    11.53960258     0.90543180     1.27320767     1.63036874
O       6.23336085     0.72092181     5.94984610     0.90426760    -1.27227436    -1.62974242
O       1.40090265     4.15415889     5.70976115    -0.90426760     1.27227436     1.62974242
O       0.27738684     2.96530048     3.14955078    -2.09685393     0.71168136     0.43202777
O       7.35687678     1.90978016     8.51005647     2.09685393    -0.71168136    -0.43202777
O       4.09451326     1.90973484     2.68028990    -2.09823822    -0.71105504    -0.43144953
O       3.53975031     2.96534586     8.97931716     2.09823822     0.71105504     0.43144953
O       0.27737263     0.52776003     2.68025269    -2.09727559     0.71116508    -0.43184702
O       7.35689094     4.34732061     8.97935438     2.09727559    -0.71116508     0.43184702
O       3.53973615     0.52780542     8.51009362     2.09821328     0.71148493    -0.43271837
O       4.09452741     4.34727522     3.14951357    -2.09821328    -0.71148493     0.43271837
