# total energy = -19516.12184170 eV

CRYSTAL
PRIMVEC
        5.17600016     0.00000000     0.00000000
        0.00000000     5.50899976     0.00000000
        0.00000000     0.00000000     9.26300011
PRIMCOORD
23 1
Ti      1.89539998     3.16755199     3.41728301     1.20097610     0.82358301     2.46207465
Ti      3.42756201     2.26632699     5.85970600     0.59712787     0.62197811    -2.99680337
Ti      4.30700502     2.25443701     1.52232002    -0.21705647     0.04188560    -2.33426300
Ti      0.74375598     3.49710897     7.89450101    -0.77319914     1.18913411     0.74328692
Ti      2.08870198     0.15437799     1.53153099    -0.28552137    -0.22220999    -2.49214936
Ti      3.09957298     5.15642002     7.93883299     0.51909641    -1.57718674     1.57609402
Ti      0.72156599     0.57199901     5.97058901    -0.07003379    -0.88821003    -3.34327661
Ti      4.54234199     4.84444997     3.15074902     0.85127560     1.37900064     3.24241580
O       1.83932497     1.98020201     4.70764501    -0.92961406    -1.85068614     1.46969711
O       3.59296102     3.61873899     4.53862400    -0.06983324     0.91007161    -1.33894206
O       4.53553598     3.13106702     9.17552102     0.59076208    -0.58889469    -0.20134651
O       3.45857699     0.57477502     0.22971701    -0.45717137     1.57147786     1.25382000
O       1.67006700     4.54628098     9.25697601    -0.74882610    -0.69320952    -1.47359721
O       4.48306499     0.91237598     4.70133399    -0.73241372    -0.68056560    -0.20688672
O       0.81864202     4.58176200     4.33279802     1.88186515     0.24249908     0.36250794
O       0.39371999     3.35911701     2.33351398    -0.54789149     0.15333834    -0.60311598
O       5.16997500     2.05046601     6.65705801     0.16206980     2.67242387     2.19461297
O       2.74634499     1.70741500     2.44196499     0.05933697    -0.81598771    -0.77719361
O       2.60188902     3.45327098     7.02250200    -1.18214996     1.07552730     1.27992391
O       0.17831501     0.72972802     1.85175900     1.09839136    -1.03247674     0.79731250
O       4.91271199     5.07851899     7.27068602     0.65462111    -1.49717372    -0.09827326
O       2.49489902     0.97883001     6.94977600    -1.40436252    -0.67642535    -0.58286930
O       3.09257498     4.16113202     2.03956501    -0.19744923    -0.15789330     1.06697144
