# total energy = -19072.95122810 eV

CRYSTAL
PRIMVEC
        7.60600008     0.00000000     0.00000000
        0.00000000     7.60600008     0.00000000
       -1.89786986    -1.89786986     4.85670466
PRIMCOORD
22 1
Ti      3.84426899     6.59802903     1.58292002     0.22672510     1.20527936    -1.59580436
Ti      3.67917399     2.81976802     1.05194399     1.65969347    -1.31278288     0.74830468
Ti      0.11444601     6.67883900     1.30907201     0.15777220     0.89250866    -2.04146412
Ti     -0.00457998     2.93320097     0.97661000    -1.56950068    -1.00202818    -1.03107549
Ti      5.59703025     2.88425822     3.37795180    -1.68887756     0.89984736     0.00227594
Ti      6.05702022    -0.87002376     3.77236481    -0.18935642    -1.53640620    -0.15395926
Ti      1.86270122     2.94464120     3.78272081     3.45456814    -0.75288099     2.25049052
Ti      1.41380820    -1.00363979     3.96529982     1.42888494     0.67584788    -0.13114431
O       3.56985799     4.66896099     0.87971199    -0.33127391     1.88325097     0.83049517
O       3.86883800     0.97794501     1.16456699    -0.63248930    -0.68277135     0.18696066
O       0.31105399     4.74395101     0.41271402     0.45760691    -0.82616286     1.39107711
O       0.17206299     0.98854501     0.93948002    -0.96919595    -1.61890830     1.11125305
O       5.70050425     4.81412521     4.03368179     0.05504477     0.34576440    -0.55114599
O       5.10444222     0.73005225     3.96029983     0.52170814     1.13526459    -0.81058608
O       2.01758923     4.82976123     4.61481483    -0.57628882    -0.36232231    -2.32293446
O       2.10798721     0.98275920     4.08652480    -0.12079896     0.23386095    -0.43895689
O       3.69139921     3.08797622     3.14887880     0.00646658    -0.05554176    -0.02105040
O       0.44010121     2.98454223     2.81077682    -2.23940417     0.53074248    -0.09179999
O       5.92208002     6.70683898     1.78981002    -1.05464557    -0.68665501     0.53229491
O       5.73889600     2.76250998     1.42861802     0.19975268     0.96883934     1.55711824
O       1.99094003    -0.74009502     2.15464402    -0.08077124    -1.62111585    -0.01720814
O      -0.07104575    -0.13502577     4.49914880     1.28437989     1.68636945     0.59685971
