# total energy = -39034.55918980 eV

CRYSTAL
PRIMVEC
        5.93200024     0.00000000     0.00000000
        0.00000000     9.29399984     0.00000000
        0.00000000     0.00000000     9.29399984
PRIMCOORD
46 1
Ti      4.47569000     7.01878998     6.93107202    -0.74812239    -1.11368737     0.90638439
Ti      4.50907601     7.01571001     2.33467901     0.62833491    -0.37021174     0.09048795
Ti      4.40461203     2.33895403     6.98504799     0.86540716    -0.22259437     1.01461810
Ti      4.19189097     2.53853100     2.03523798     1.23743127    -0.43651589     0.95213565
Ti      1.49427998     6.99107601     6.92477000     0.34999823    -1.29377342     0.85171115
Ti      1.56314102     6.89158503     2.38994602    -1.02354241     0.02263472    -0.09744690
Ti      1.51553798     2.37650899     6.89599498    -0.65129513     0.16690708     1.15779209
Ti      1.20799101     1.97412701     2.60692399     1.35113912     1.46534294    -1.24800622
Ti      3.06725300     4.71366398     4.63485498     0.04009328    -0.59886671     0.10751072
Ti      3.03140601     4.89234898     9.09276500    -0.22104939    -0.34293824    -0.11156741
Ti      2.90567201     0.00723502     4.73644601     0.37307158    -0.00966709    -0.92019353
Ti      2.97312099     9.15812998     0.12124001    -0.18009453     1.44370119    -0.75671117
Ti      0.11615700     4.62921200     4.51121902    -0.09214657    -0.88837304     0.48703397
Ti      0.08212498     4.70432902     9.29045202     0.06680371    -0.64044789     0.13860822
Ti      5.87460599     9.07675803     4.91804001    -0.74638021     1.55708688    -1.91114925
Ti      0.00600701     9.27823401     9.29368201     0.18263658     1.33203222    -0.45465323
O       4.41439498     5.65525298     5.50971198     0.49107677    -0.52619394    -0.19042163
O       4.44231998     5.60013297     0.92617698    -0.16145608    -0.06247783    -0.28893914
O       4.56034201     0.74642398     5.90762200    -0.95388888    -0.39789070    -2.01660180
O       4.58035401     0.98805097     0.93229898    -0.97479659    -0.15836099     0.38000893
O       1.44154498     5.65194599     5.49323102     0.03785282    -0.96097536    -0.44110659
O       1.58261299     5.74508399     0.83474002    -0.56429950    -0.91376552    -0.47273683
O       1.41171298     0.73796001     5.68193700     0.63798889     1.51321073     0.21545415
O       1.47570998     0.85985699     0.87341499     0.26663635     0.66613297     1.50396504
O       4.45671699     8.41888698     8.36773502    -0.02068453    -0.30844765     0.10408961
O       4.43284300     8.23837198     3.87905498     0.11048214     0.62868741     0.10510262
O       4.38034301     3.85862202     8.28014602     0.37367399    -0.06516463     0.86584631
O       4.41673902     3.90942298     3.59738499    -0.03578848    -1.49305713    -0.11590229
O       1.60958299     8.34830299     8.39196599    -0.79913464     0.12260773     0.09753998
O       1.41485899     8.39877200     3.85389398     0.50757298    -0.10002623    -0.92872343
O       1.54455398     4.03089001     8.15720201    -0.34286419    -1.09466223     1.12634029
O       1.61819403     3.58569198     3.71314701    -1.36591320    -0.30635760    -0.28798063
O       2.96633102     6.18062798     7.83058201     0.60670909    -0.07393750     0.06015278
O       2.94882499     5.96998601     3.16931701     0.22290496     0.63079751     0.28149013
O       2.96409598     1.59265699     7.96676599    -0.35288867    -0.47550231    -0.17705317
O       3.00692600     1.34880598     3.16049800    -0.54279582     0.27413009     0.35557341
O       5.81328901     5.97983601     7.83126798     0.15854482     1.29540993    -0.09637912
O       0.13989600     5.74501202     3.00926999    -0.45266833     1.86593202     0.35145528
O       5.86892702     1.51649500     8.02368302     1.03166632    -0.05261996    -0.55039009
O       2.88457800     7.79910401     6.02115798     0.53898261     0.96721980    -0.31866804
O       2.99300499     7.91659702     1.53522200     0.47521537     0.22283631    -0.19817325
O       2.99313802     3.12833000     5.92632302    -0.21288382     0.29275800    -0.04092992
O       0.02152402     7.76791599     6.07399400     0.08318987    -0.31149183     0.72422655
O       0.00771498     7.96704502     1.61117301    -0.17112189    -0.29692422    -0.64512370
O       0.06204598     3.19376701     5.96705501    -0.37085631     0.02550972    -0.05784084
O       5.86865598     3.31762798     1.38076399     0.34725821    -0.97800558     0.44917086
