# total energy = -19925.10488309 eV

CRYSTAL
PRIMVEC
        6.83199305     0.00000000     0.00000000
        0.00003177     5.94925110     0.00000000
        0.00000000     0.00000000    11.22843490
PRIMCOORD
24 1
Ti      2.47628769     3.52552057     4.16566941     0.35954037    -0.80354588     0.85856803
Ti      4.35573719     2.42373028     7.06276594    -0.35954037     0.80354588    -0.85856803
Ti      5.89216585     2.42373220     1.44850340     0.35933674     0.80387216    -0.85907016
Ti      0.93985904     3.52551884     9.77993207    -0.35933674    -0.80387216     0.85907016
Ti      2.47627206     0.55089515     1.44854843     0.35954037    -0.80354588    -0.85856803
Ti      4.35575282     5.39835589     9.77988705    -0.35954037     0.80354588     0.85856803
Ti      0.93984341     0.55089297     7.06272092    -0.35933674    -0.80387216    -0.85907016
Ti      5.89218148     5.39835800     4.16571443     0.35933674     0.80387216     0.85907016
O       2.16238014     2.09483236     5.72978455     0.97023313     1.36062855    -0.79284623
O       4.66964474     3.85441849     5.49865079    -0.97023313    -1.36062855     0.79284623
O       1.25367868     2.09485640     0.11560305    -0.96972148     1.36094017    -0.79354377
O       5.57834627     3.85439451    11.11283198     0.96972148    -1.36094017     0.79354377
O       4.66962911     0.87979287     0.11556660    -0.97023313    -1.36062855    -0.79284623
O       2.16239577     5.06945797    11.11286843     0.97023313     1.36062855     0.79284623
O       5.57833057     0.87976890     5.72982100     0.96972148    -1.36094017    -0.79354377
O       1.25369419     5.06948202     5.49861434    -0.96972148     1.36094017     0.79354377
O       0.24824131     3.61867179     3.03308050    -0.78876538     0.06403155     0.03771296
O       6.58378357     2.33057906     8.19535484     0.78876538    -0.06403155    -0.03771296
O       3.66424467     2.33052376     2.58117289    -0.78916673    -0.06388602    -0.03774587
O       3.16778021     3.61872708     8.64726226     0.78916673     0.06388602     0.03774587
O       0.24822562     0.64404618     2.58113701    -0.78876538     0.06403155    -0.03771296
O       6.58379927     5.30520467     8.64729814     0.78876538    -0.06403155     0.03771296
O       3.16776452     0.64410147     8.19539066     0.78916673     0.06388602    -0.03774587
O       3.66426037     5.30514938     3.03304462    -0.78916673    -0.06388602     0.03774587
