# total energy = -19960.66527471 eV

CRYSTAL
PRIMVEC
        7.60600008     0.00000000     0.00000000
        0.00000000     7.60600008     0.00000000
       -1.89786986    -1.89786986     4.85670466
PRIMCOORD
24 1
Ti      3.82444902     6.65609501     1.18326600     1.01320477    -1.10300032    -2.58378891
Ti      3.79352301     2.67199601     1.24402798    -0.50832862     1.06170711    -0.96314306
Ti      0.04081301     6.74044100     1.25348999    -1.50399152    -0.81093395    -0.73978584
Ti     -0.09520603     2.79712701     1.32935802     0.33786185     0.85680553    -0.22394934
Ti      5.61471424     2.92063524     3.64383284     1.43767709     0.04081782     1.81780995
Ti      5.62470924    -0.84548978     3.62427979     2.04442681    -0.07514103     0.00715873
Ti      2.02861025     2.79633621     3.67981282    -2.57582595     0.44290482     0.62448879
Ti      1.99541724    -0.90417977     3.52080580    -1.57258112    -0.45295218     0.87477807
O       3.84526501     4.62551299     0.81759499    -0.44732404     0.99427990     0.12342174
O       4.11713500     0.84691501     0.59174098    -0.90283395     0.09598883     0.90463064
O      -0.27701101     4.73162700     0.73379602     0.93309611     0.02711923     1.04200165
O      -0.18895401     0.98062699     0.79673800     0.20481184     0.10232789    -0.11655483
O       5.72824821     4.80187523     4.11554483    -0.10170825     0.09226741    -0.62993208
O       5.58789723     0.94170124     4.07470981     0.07921366    -0.16584599     0.01985021
O       1.89106221     4.65211823     3.94938481     0.06487333     0.80445066     0.08591293
O       2.13362923     0.86835124     4.17827583    -0.53194884     0.00925315    -1.26449471
O       3.74178524     2.83845824     3.22867783     1.10279695    -0.04272764    -0.11467613
O       3.87351323    -0.86560375     3.01823881    -1.81415718    -0.45344532     1.47151642
O      -0.12603176     2.73661724     3.27820882     0.72094608     0.19118962    -0.40469950
O       0.07631921    -0.76929577     3.23410280     0.10173165    -0.50445885    -0.14759912
O       5.72400898     6.73515801     1.61029902     0.07310755    -0.51114758     0.40066364
O       5.59795800     2.78354002     1.71448201     0.53565843     0.01657077    -0.42601524
O       1.88872399     6.89397400     1.47216799     1.25878224    -0.57849200     0.70836515
O       1.85771500     2.65194099     1.69897299     0.05051114    -0.03753786    -0.46595914
