# total energy = -4983.17793334 eV

CRYSTAL
PRIMVEC
        4.72351030     0.00000000     0.00000000
       -0.00000767     3.14900650     0.00000000
       -2.36178298    -1.57455130     5.23285562
PRIMCOORD
6 1
Ti     -0.00020301     2.36186927     1.30821363    -0.00502574    -0.00959408    10.40520899
Ti      2.36192271    -0.78741440     3.92464128     0.00502574     0.00959408   -10.40520899
O       0.00004971     0.78724307     0.85238929     0.00321105     0.00379186    -4.44599206
O       2.36166988     0.78721174     4.38046567    -0.00321105    -0.00379186     4.44599206
O      -0.00002024    -0.78724598     3.46881699    -0.00252534    -0.00000617    -1.83841606
O       2.36173978     2.36170073     1.76403802     0.00252534     0.00000617     1.83841606
