# total energy = -19075.14168522 eV

CRYSTAL
PRIMVEC
        7.60600008     0.00000000     0.00000000
        0.00000000     7.60600008     0.00000000
       -1.89786986    -1.89786986     4.85670466
PRIMCOORD
22 1
Ti      3.81834602     6.55299699     1.31793198     0.97124101     0.90051045    -0.87485597
Ti      3.72848098     2.83553602     1.15546202    -0.52406918    -0.93035300     0.99913003
Ti     -0.02017203     6.69471802     1.01595899    -0.34693322    -1.05815255     1.20078507
Ti     -0.13423899     2.83250098     1.04093102     0.03012743     1.79368219     1.19982270
Ti      5.64256124     3.00343724     3.55401680    -0.68671363    -0.82174416    -0.43048819
Ti     -1.30517579    -0.79580776     3.84849881    -0.53289835    -0.22534313    -2.75058852
Ti      1.80166121     2.77843224     3.67934783     0.52014490    -0.72305773    -0.96704754
Ti      1.80287022    -1.09447180     3.75353081    -0.39947965     0.40243667     1.02644467
O       3.74082801     4.70216601     0.81295501    -0.55719220     0.16842377     0.29890628
O       3.93113798     0.89864097     0.82361999    -0.17100413    -1.18640900     0.81447076
O      -0.01851999     4.77853597     0.63517399     0.10742639     1.13013036     0.76399973
O       7.33858798     1.04593302     0.60645999    -0.39615341    -1.62497842     2.37074620
O       5.44634523     4.88472423     4.00149184     1.03920017     0.16141237    -0.19965755
O       5.56106720     0.97148624     3.94474779     0.67223291    -0.02744551    -0.14224402
O       2.11254623     4.56384522     4.23963880    -0.83445313     2.36413589    -0.83542346
O       2.13380725     0.86486423     4.10705180    -0.82922864    -0.04816732    -0.96938338
O       3.66245723     2.92520421     3.15524481     0.11721946    -0.49636142    -0.28272581
O      -0.11876076     2.75770722     3.16834279     1.21456516     0.48908777     0.16927610
O       5.80668101     6.62121498     2.04121599     0.05408703     0.05842217    -0.93040133
O       5.60630800     3.08100097     1.60157802     0.47195958    -0.48192904    -0.10135781
O       1.98734998     6.65724899     1.89604299    -0.28939191    -0.09695582    -0.99981909
O       1.75240999     2.68589602     1.38933503     0.36931340     0.25265520     0.64041061
