# total energy = -19517.89272276 eV

CRYSTAL
PRIMVEC
        5.17600016     0.00000000     0.00000000
        0.00000000     5.50899976     0.00000000
        0.00000000     0.00000000     9.26300011
PRIMCOORD
23 1
Ti      1.79673801     3.18626999     3.42423201     0.49511598     0.19543528     2.60978406
Ti      3.33250903     2.23036998     5.83593801     0.91858839     0.32915378    -2.84422762
Ti      4.37144298     2.07073397     1.50310300     0.08921140    -0.02319804    -1.58910638
Ti      0.90258800     3.40493900     7.73134498    -1.82237571    -0.16609153     2.28413239
Ti      1.98976700     0.25290598     1.35429000     0.76294121     0.21149954    -1.28857208
Ti      3.27831000     5.14693399     7.83692102    -0.19483621     0.75315121     2.83868072
Ti      0.72228800     0.54975002     5.92377598    -0.01049345    -0.21526004    -3.22811583
Ti      4.51796899     4.96824501     3.34919499    -0.28454923    -0.30846050     3.11682045
O       1.68339401     1.83274201     4.83083700     0.00193373     0.58728389    -0.51725267
O       3.48701899     3.51733101     4.44555098     0.42796054    -0.30177358     0.88080782
O       5.15553799     2.85197100     0.02536902    -0.09818841    -0.45810339    -0.02186287
O       3.42912700     0.82275098     0.23657001     0.55510755    -0.05355327    -0.60288766
O       1.80147298     4.65246801     9.07033302     0.19583277    -0.43763740    -0.17168805
O       4.26334001     0.76888401     4.81624599    -0.06661988    -0.36753393    -0.48446261
O       1.00871799     4.68392802     4.45831399    -0.70046081     0.35967047     0.89636763
O       0.12478100     3.38274398     2.58857302    -0.29192110    -0.67988889    -0.82665548
O       5.04315900     2.01640202     6.78549102    -0.21067807     1.37737673     0.48784901
O       2.55562200     2.00672999     2.20559601     0.61217346    -0.51979575    -0.81771781
O       2.59590001     3.59554002     6.97189101     0.77352336    -0.44382296    -0.00148918
O       0.26363801     0.58953298     2.12419300    -0.23806239     0.80048370    -0.69704175
O       5.11090300     4.94990002     7.28255499    -0.73057589    -0.95342094     0.21423931
O       2.40968798     0.89866002     6.94337999    -0.61981350     0.14384633     0.09996736
O       2.79988397     4.60084100     2.43902398     0.43618627     0.17063904    -0.33756874
