# total energy = -39033.05189179 eV

CRYSTAL
PRIMVEC
        5.93200024     0.00000000     0.00000000
        0.00000000     9.29399984     0.00000000
        0.00000000     0.00000000     9.29399984
PRIMCOORD
46 1
Ti      4.43737699     7.17537098     6.94788398    -0.37733575    -1.74602498     0.51877708
Ti      4.49553098     6.76687499     2.20890401     0.56549610     0.93955472     0.76637363
Ti      4.47296098     2.30246202     7.16892502     0.28301686     0.09050081    -0.90828932
Ti      4.33843301     2.59561700     2.08791901    -0.27251235    -1.87645889     1.46712806
Ti      1.36734200     6.93235797     7.09892302     0.24916570    -2.16140716    -0.54838385
Ti      1.61713901     6.97662900     2.13150702    -0.81195776     0.90755116     1.36950503
Ti      1.47420998     2.38966598     6.83025301    -0.14166398     0.51322606     0.53411268
Ti      1.28428498     2.02409298     2.79425199     1.55831869     0.32003073    -0.34910400
Ti      3.18559497     4.58561499     4.62200402    -0.29071963    -0.60524742    -0.11292932
Ti      2.94569400     4.87067801     9.16569600    -1.49012993    -1.90075274    -0.58004803
Ti      3.00565301     9.25142599     4.71154499    -1.44423906     0.76736222     0.19288295
Ti      2.86614199     0.00784802     0.00909000    -0.10933106     1.77022138     0.29418445
Ti      0.16880902     4.88128002     4.61176899     0.49176583    -0.81476747     0.79077521
Ti      0.02108099     4.49648302     0.11225802     1.45803098    -1.25849967    -2.22538574
Ti      5.78714998     9.04693502     4.67849401     1.37990669     0.88129993    -0.10473315
Ti      5.84577102     9.24474899     9.27721899    -0.24319174     1.48271358     0.89087626
O       4.43133400     5.74490301     5.32814301     0.37299547    -0.39014782     0.53828739
O       4.51161500     5.52338798     0.74423002    -0.27998270     0.93069367     2.27636508
O       4.45975198     0.89154899     5.61773902     0.03247125    -0.93631847    -0.56103317
O       4.38327999     0.90911900     0.91845999     0.71628621     0.80753624    -0.07254550
O       1.54323300     5.87039898     5.44774501     0.02416092    -2.06546024     0.01675717
O       1.28796599     5.58739499     0.90131401     1.87460049    -0.16740510    -0.87189303
O       1.36443200     0.98694902     5.58925499     0.16225210    -1.12603639    -1.73221892
O       1.67083298     0.76232100     1.13770198    -1.82873200     0.60146378     0.09900319
O       4.37392202     8.66286400     8.17989302     1.35658935    -1.32989563     0.12835157
O       4.26369900     8.27996901     3.77865799     1.28390115     0.17003046    -0.11508879
O       4.42033801     3.76775599     8.46258602    -0.87276129    -1.43398601     0.20118118
O       4.68091902     3.66700001     3.80186998    -1.56401549     0.29691856    -1.10572981
O       1.36259300     8.24028501     8.42290598     0.26786431     0.96546039     0.75671682
O       1.40111102     8.46245298     3.68592301     0.13175597     0.50278507     0.24583998
O       1.45795000     4.00224602     8.09309499     0.79220500    -0.35744286     2.56834326
O       1.54010302     3.78080000     3.75515099     0.22940445    -1.17968453     0.58602508
O       3.05160798     6.06228199     7.92367101     0.02002684     1.92715129    -1.32865713
O       2.91017298     5.91726599     3.05373099     0.95194873     0.62207196    -0.47676266
O       2.76405598     1.41871098     7.98343301     1.36597799     0.78323776    -0.75512325
O       3.10728902     1.55726699     3.15328500    -0.35911331     0.00642622     0.54498126
O       5.85526298     5.90998499     7.81813502    -0.02147720     1.82371860    -0.46721744
O       0.23207597     5.87359902     3.08095001    -1.94253009     1.69572364    -0.51355079
O       0.18128099     1.55908101     8.11922698    -1.41728181    -0.42590520    -0.52686474
O       2.98961799     7.78802102     6.01579599    -0.79470026     1.44882617     0.17902701
O       3.10293003     7.89288998     1.31094699     0.06047108    -2.09301322     0.72394193
O       3.10715699     3.14451299     6.01915700    -0.25777658     0.77670536     0.23864654
O       0.03745702     7.80021999     6.09446501    -0.14299401     1.31095534    -0.59993989
O       5.85403100     7.96977399     1.56725902     0.06465221    -0.48611557    -1.06409489
O       5.88150398     3.30185500     6.12077798    -0.33251395    -0.65567654     0.48256153
O       0.20613899     3.03348303     1.63680799    -0.69830339     0.66808109    -1.39105114
