# total energy = -19518.12528441 eV

CRYSTAL
PRIMVEC
        7.60600008     0.00000000     0.00000000
        0.00000000     7.60600008     0.00000000
       -1.89786986    -1.89786986     4.85670466
PRIMCOORD
23 1
Ti      3.76582402     6.76146198     1.29138903     0.77128444    -0.10616783     0.10413563
Ti      3.75247901     2.96143501     1.20506302     0.65456994     0.14504652    -0.37465615
Ti     -0.01883299     6.57190000     1.24710599    -0.93684889     0.94528160    -1.03032627
Ti     -0.05876101     2.83167398     1.07148598    -0.10980517    -1.15657956     0.37153252
Ti      5.69068324     2.69683025     3.59458681    -0.46092286    -0.22623222    -0.73336477
Ti      5.71803023    -1.18537276     3.56870179    -0.79096573     0.77040384     1.46698948
Ti      2.08258321     2.99022321     3.69115483     0.28775797    -1.45689301    -0.77499969
Ti      1.87789321    -0.94552978     3.67468080     0.34500798     0.74294727     0.67318036
O       4.15525201     4.83775202     0.70226102    -0.74188207    -0.30668953     2.41653114
O       3.72116199     1.01177600     0.82967399    -0.57228870    -0.08473845    -0.22972275
O      -0.21147399     4.61791099     0.67145698     0.37503179     1.68718192     1.43961544
O      -0.01339501     0.92691899     0.64531901     0.66958313    -0.93528129     1.13886183
O       5.56138122     4.61799725     4.06441879     1.03082017     0.37727508     0.01031218
O       5.72795722     0.87273822     3.96379182     0.54438810     0.37122013    -0.05262742
O       2.00076621     4.75807624     4.17466879    -0.93478224     2.07805633    -0.32713417
O       1.82944121     1.06704624     4.06055982    -0.47966081    -0.87969145    -0.25107552
O       3.87660722     2.92946424     3.22349280    -0.55333786    -0.43045245    -0.61323173
O       3.75666422    -0.95037678     3.36957583    -0.58977400    -0.04045195    -1.28390732
O      -0.04060975    -1.11617775     3.26364079     0.97123407    -0.20373969    -0.41022737
O       5.68178799    -0.66611499     1.73693399    -0.02586325    -0.90360271    -0.92895894
O       5.67875501     2.63527000     1.60241100     1.60769418     0.60642036     0.18180277
O       1.82874498     6.64406300     1.65261002     0.68882219    -0.20993631     0.01294782
O       1.97288402     3.26226598     1.74077598    -1.75006290    -0.78337660    -0.80567656
