# total energy = -19520.01206683 eV

CRYSTAL
PRIMVEC
        5.17575250     0.00001323     0.00000000
        0.00001429     5.50856584     0.00000000
        0.00000000     0.00000000     9.26345890
PRIMCOORD
23 1
Ti      1.84206374     3.36036459     3.41108639    -0.00160720     0.01131209     0.00264901
Ti      3.36804348     2.16833491     5.77133673     0.00422252    -0.02763448    -0.01763777
Ti      4.58195384     1.94519073     1.42559005     0.00078496     0.01716598    -0.00642982
Ti      0.84395955     3.31859228     7.93482329     0.01293857     0.02023819     0.00362654
Ti      2.03520807     0.48030586     1.25826397    -0.01602441    -0.01049987     0.00637994
Ti      3.16118097     5.16981483     7.91200097    -0.01798796     0.00480051    -0.00138043
Ti      0.60863836     0.69750334     5.66872703    -0.01049113    -0.02972891     0.02174640
Ti      4.57726684     4.82820461     3.57418029    -0.01306609     0.00756547     0.00252431
O       1.52761083     1.95219951     4.66954272     0.00254282    -0.01895418    -0.01045411
O       3.57806606     3.51301204     4.50129394     0.00480514    -0.00556644     0.01317177
O       0.72878107     2.12685385     0.08999249    -0.01906499     0.03863650    -0.00614160
O       3.54885720     0.84341084     0.09502869     0.01750099     0.00239755    -0.02328340
O       1.68397173     4.71857002     9.13513132    -0.00641053    -0.00887751     0.01408374
O       4.05731777     0.76423746     4.70369662    -0.01647641     0.00255773     0.00493909
O       1.04382179     4.63598181     4.62135223    -0.01142547     0.01310980    -0.01180908
O       0.17889750     3.37437528     2.38620681     0.02135199    -0.01949617     0.03017962
O       4.93643449     2.15423210     6.83426409     0.00084024     0.01485224    -0.00303545
O       2.78655451     2.12437449     2.09468620    -0.00386745    -0.01196129     0.01031321
O       2.48839077     3.41679066     7.14178371     0.00722943    -0.00067466     0.00823139
O       0.28003150     0.55924978     2.21169902     0.01678288    -0.01429123    -0.01054050
O       4.89831694     4.78901803     7.32678150     0.02569047    -0.00393482    -0.00923695
O       2.31357757     0.74540495     6.77063788     0.00357358    -0.00180774    -0.01780001
O       2.81424330     4.84803320     2.45531705    -0.00184220     0.02079123    -0.00009539
