# total energy = -79406.60097190 eV

CRYSTAL
PRIMVEC
       10.35150501     0.00002646     0.00000000
        0.00002858    11.01713167     0.00000000
        0.00000000     0.00000000     9.26345890
PRIMCOORD
95 1
Ti      7.02018373     8.82449340     3.48103761    -0.00046588     0.00092123     0.01080275
Ti      7.15508649     3.22207471     3.41491017     0.00290946    -0.01091228    -0.00597807
Ti      1.84570996     8.81704927     3.44077742     0.00379598    -0.01334532    -0.00805373
Ti      1.77156631     3.13643506     3.51296224     0.00485759    -0.02072490     0.00744103
Ti      8.48730421     7.73253671     5.80692340     0.00556310     0.00842577     0.00254205
Ti      8.49167965     2.22576294     5.84701730    -0.00155680     0.01066982     0.00749734
Ti      3.28792539     7.69227535     5.79301207     0.00438399     0.00431251     0.00450535
Ti      3.33700285     2.17380993     5.84758000     0.00483342     0.00135651     0.00598167
Ti      9.52936917     7.76552184     1.19486834    -0.00021854     0.00453568    -0.00973086
Ti      9.67603734     2.19401292     1.15024304    -0.00379006     0.02273396    -0.00013215
Ti      4.45036353     7.69319544     1.21804630     0.00286935    -0.00330901    -0.00098345
Ti      4.46747938     2.21718371     1.21253096    -0.00110660     0.01505407     0.00061192
Ti      5.89506556     8.81517795     8.11088371    -0.01037800     0.01118096     0.00690059
Ti      5.91707084     3.30891747     8.11118373    -0.00200418    -0.00333961    -0.00407494
Ti      0.68352487     8.90393745     7.94433774    -0.00144753     0.00339823    -0.00177483
Ti      0.73386406     3.30888879     8.05784230     0.00574333     0.00438476    -0.00172007
Ti      7.02078819     6.03105225     1.19730070    -0.00652546     0.00536641     0.00670364
Ti      7.02843282     0.55097461     1.22042217    -0.00726825    -0.00954240    -0.00221758
Ti      1.74265676     6.28715985     0.95050811    -0.00968046     0.01529730     0.00020029
Ti      1.88262181     0.52619913     1.15147556    -0.00539289    -0.00926189     0.00598604
Ti      8.41812922    10.47627186     8.11133433    -0.01211041     0.00555796     0.00844608
Ti      8.51291746     4.95824395     8.08535934    -0.00582021     0.01127609     0.01162576
Ti      3.32945049    10.45730261     8.08120126    -0.00192061     0.00972057    -0.00045637
Ti      3.30412996     4.94599623     8.07322174    -0.00202603     0.00721580     0.00605546
Ti      5.89833018     6.14950399     5.96671344     0.00302902    -0.00142876     0.00285984
Ti      5.90384641     0.55188717     5.82052508     0.00863120    -0.01481367     0.00792646
Ti      0.72859852     6.03984757     5.79057498     0.00000643     0.00249371     0.00969666
Ti      0.68755900     0.50173648     5.83982479    -0.00452334    -0.00692501    -0.00679286
Ti      9.63165124    10.49041819     3.42221492     0.00534687     0.00312903    -0.00066052
Ti      9.65677405     4.99483423     3.38703471     0.00941975    -0.00425492     0.00723072
Ti      4.43474006    10.45506783     3.44750107    -0.00945986     0.00393430     0.00242224
Ti      4.74565068     4.90195929     3.63508396     0.01422798    -0.01204588     0.01579969
O       6.81399449     7.44732308     4.74411902    -0.00101302     0.00177920    -0.01158282
O       6.83826145     1.91914152     4.72432941    -0.00709059    -0.01769794     0.00188693
O       1.63889853     7.43892656     4.72710056     0.00679131    -0.00271997    -0.01006227
O       1.60460780     1.86803600     4.72475195     0.00268835    -0.00261147    -0.00360546
O       8.71584582     9.07952740     4.53871729     0.00168793     0.00033733     0.00531936
O       8.75180686     3.55588434     4.53379384     0.00327970     0.00592100    -0.00033373
O       3.52704527     9.07845206     4.53299724    -0.00361626    -0.00147144    -0.00432125
O       3.44479330     3.65366271     4.36316892    -0.02867732    -0.01639722    -0.01037312
O       6.09754005     7.41874795     0.12084505    -0.00240810     0.01028365    -0.00120508
O       6.13147324     1.92431216     0.09602033     0.00018152     0.00708622     0.00067851
O       0.89927479     7.48264183    -0.02824342    -0.00550345    -0.02073724     0.02743908
O       0.95403035     1.92906780     0.07947361     0.00639331     0.00266084    -0.00336738
O       9.37750185     9.10567276     9.16316897     0.00485964    -0.00155937    -0.00663396
O       9.41657890     3.57772151     9.16141538    -0.00669156    -0.00007276     0.00491981
O       4.19808789     9.06819554     9.19680630    -0.00053325    -0.00496172    -0.01701042
O       4.24261521     3.57772755     9.19349895    -0.00379803    -0.00973214    -0.01046619
O       8.69979135     6.33700306     0.10128059     0.00590763    -0.00351059     0.00272948
O       8.70582356     0.82018395     0.08980829     0.00021777     0.00887005     0.00302850
O       3.53331858     6.31342007     0.10110703     0.00830647    -0.00029799     0.00052862
O       3.54025065     0.81788095     0.11242774     0.00462259    -0.00573382    -0.00266649
O       6.79713339    10.18558592     9.19406784     0.00544611    -0.00140665    -0.01576858
O       6.82567021     4.67084275     9.18450118     0.00704457     0.00421970    -0.00133877
O       1.61602690    10.21485229     9.15458050     0.00341314    -0.00215510    -0.00061295
O       1.66119199     4.67373404     9.20659027    -0.00713764     0.00498666    -0.00416467
O       9.40996239     6.31466274     4.71208593    -0.00036253    -0.00313983     0.00317583
O       9.41123613     0.80467169     4.73915806     0.01528084    -0.00170747     0.00302516
O       4.24742564     6.32818150     4.75211580     0.01089403    -0.01663144    -0.00624495
O       4.22422447     0.84414447     4.70570030    -0.00824065    -0.00454725     0.00325527
O       6.11682327    10.19658116     4.54737370    -0.00819539     0.01017283     0.00622516
O       6.20634688     4.67801397     4.62403644    -0.01346462    -0.00749965     0.00044969
O       0.94296164    10.16412562     4.55214950     0.00024374    -0.00001311    -0.00626398
O       1.00516864     4.71449380     4.44989566    -0.00727340     0.00562249     0.01435910
O       5.34819271     8.84442413     2.51450115     0.00166916    -0.00922641    -0.01025716
O       5.42367158     3.34011959     2.52705111    -0.00015787     0.00584772     0.01227754
O       0.18464776     8.86581334     2.47863561     0.00497097     0.00680314    -0.00360597
O       0.17442447     3.37250679     2.46482673     0.00780356     0.00674041    -0.00161131
O      10.17098891     7.66836495     6.73198646    -0.00270712     0.01629283    -0.00821416
O      10.17330745     2.14363331     6.77265477     0.00368131    -0.00147376    -0.02124632
O       4.97337357     7.66095732     6.79566762    -0.00454186    -0.00066514    -0.00873353
O       4.97816136     2.18374591     6.74313835    -0.00912588     0.00043966    -0.00131049
O       7.92648275     7.66443937     2.14095051     0.00135651     0.00230654     0.00135523
O       7.97915645     2.11595503     2.13705004     0.00532758     0.00918321    -0.00288581
O       2.74079810     7.53016076     2.15650996    -0.00435545     0.00503576    -0.00063326
O       2.77350037     2.25469245     2.11823580     0.01885776     0.00342420     0.00154421
O       7.54495363     8.85040030     7.13659645     0.00046048     0.01581203     0.00913513
O       7.58775520     3.36198217     7.13408389    -0.00903177     0.00216436     0.00089269
O       2.38192324     8.89733148     7.10796982     0.00232428     0.00122745    -0.01200577
O       2.41213419     3.36695027     7.10739272    -0.00302773    -0.00033604    -0.00299559
O       5.33589379     6.05263969     2.16127376     0.00219418    -0.00742303    -0.00053068
O       5.36206956     0.59002098     2.13991355     0.00694147    -0.00322108    -0.00617322
O       0.20951623     6.13886899     2.09108773     0.00634934     0.00484473    -0.01461416
O       0.20937770     0.61750500     2.14747663     0.00410451    -0.00961542     0.00634060
O      10.12336141    10.41510310     7.11674089    -0.00307530    -0.00490721    -0.00204943
O      10.18026591     4.90102384     7.11755513    -0.00227774     0.00584592    -0.00165990
O       4.98427547    10.42102851     7.14179813     0.00004885    -0.00161645     0.00877312
O       4.99924603     4.91237184     7.15376888    -0.00392325     0.00075076     0.00914722
O       7.58758123     6.11544876     6.79378450    -0.00344142    -0.00244049     0.00151129
O       7.55932501     0.60520246     6.77555121     0.00685996    -0.00106495     0.01085340
O       2.39292815     6.11185682     6.77222508    -0.00015092    -0.00009179     0.00296114
O       2.41621693     0.64311914     6.75453523     0.00691653    -0.00173652    -0.01697263
O       7.95462036    10.41291948     2.50739254    -0.01094699    -0.00388237    -0.01198289
O       7.96858284     4.90088039     2.49597347    -0.00185685    -0.00552222     0.01355846
O       2.76971132    10.39879975     2.48415342     0.00557904    -0.01189213    -0.00052631
