# total energy = -19894.76576817 eV

CRYSTAL
PRIMVEC
        8.73408242     0.00000000     0.00000000
        0.00002924     4.47570974     0.00000000
        0.00000000     0.00000000    13.19581063
PRIMCOORD
24 1
Ti      3.16570226     2.65230153     4.89555163     0.35474166    -0.45651882     2.80014373
Ti      5.56840959     1.82340841     8.30025914    -0.35474166     0.45651882    -2.80014373
Ti      7.53259397     1.82341000     1.70230103     0.34694556     0.45768353    -2.80094488
Ti      1.20151795     2.65230014    11.49350993    -0.34694556    -0.45768353     2.80094488
Ti      3.16568771     0.41444673     1.70235395     0.35474166    -0.45651882    -2.80014373
Ti      5.56842421     4.06126334    11.49345701    -0.35474166     0.45651882     2.80014373
Ti      1.20150334     0.41444501     8.30020622    -0.34694556    -0.45768353    -2.80094488
Ti      7.53260852     4.06126507     4.89560455     0.34694556     0.45768353     2.80094488
O       2.76440263     1.57597355     6.73372117     0.90202971     1.29864978    -2.39636777
O       5.96970929     2.89973639     6.46208959    -0.90202971    -1.29864978     2.39636777
O       1.60271046     1.57599156     0.13585826    -0.90173969     1.29902953    -2.39682388
O       7.13140152     2.89971838    13.05995212     0.90173969    -1.29902953     2.39682388
O       5.96969467     0.66188152     0.13581546    -0.90202971    -1.29864978    -2.39636777
O       2.76441718     3.81382842    13.05999498     0.90202971     1.29864978     2.39636777
O       7.13138697     0.66186351     6.73376397     0.90173969    -1.29902953    -2.39682388
O       1.60272482     3.81384650     6.46204680    -0.90173969     1.29902953     2.39682388
O       0.31734732     2.72238042     3.56451765    -2.30455904     0.72738695     0.09053655
O       8.41676453     1.75332958     9.63129312     2.30455904    -0.72738695    -0.09053655
O       4.68439946     1.75328780     3.03342967    -2.30502492    -0.72760627    -0.09086256
O       4.04971239     2.72242220    10.16238090     2.30502492     0.72760627     0.09086256
O       0.31733277     0.48452548     3.03338754    -2.30455904     0.72738695    -0.09053655
O       8.41677915     3.99118446    10.16242303     2.30455904    -0.72738695     0.09053655
O       4.04969784     0.48456726     9.63133519     2.30502492     0.72760627    -0.09086256
O       4.68441408     3.99114268     3.56447551    -2.30502492    -0.72760627     0.09086256
