# total energy = -19516.73354490 eV

CRYSTAL
PRIMVEC
        5.93400000     0.00000000     0.00000000
        0.00000000     9.29699974     0.00000000
        0.00000000     0.00000000     4.64899994
PRIMCOORD
23 1
Ti      4.52678498     7.06877701     2.22356402     1.69652865     0.09652619     0.51285428
Ti      4.39129401     2.35318699     2.38205800     1.29591104    -1.33105649     1.16156313
Ti      1.49438301     6.94883698     2.18084401    -1.46667426     1.97811469     1.08306064
Ti      1.48053698     2.38309201     2.18796198    -0.78223503    -1.13284261     1.13771023
Ti      3.04789803     4.54554701     0.14986702     0.28165289    -0.48362108    -0.35359752
Ti      2.96087800     9.27649201     4.58886498    -0.26728556    -0.33904919    -0.56614556
Ti      0.06541800     4.63598398     0.15153001     0.14354191     0.60627972    -1.42878210
Ti      5.87607298     0.09030500     4.56825300     0.55484787    -0.46174407    -0.39213349
O       4.45156799     5.63912598     0.85376801    -1.16551415     0.30373096     0.22237634
O       4.40000998     0.93888702     0.94767501     0.14445903    -0.49078212    -1.22211058
O       1.62284200     5.38994102     1.25869598    -0.03594661    -0.71788749    -1.56048356
O       1.55902201     0.86613801     0.80846398    -1.09745445     1.34072307     0.59659283
O       4.46195198     8.38632703     3.69572100    -0.41896219     0.01778793    -0.19716615
O       4.52092101     3.59066698     3.98073502    -1.03797941     0.66664050    -0.67268363
O       1.37541100     8.21068299     3.56419097     0.91521511     1.69920363     1.91489587
O       1.38696299     3.55136901     4.05154502     1.26374807     0.54878263    -1.54694439
O       2.90429800     1.40406102     3.16489599    -0.40320029     0.01580381     0.09258135
O       5.82930599     6.11041902     3.25913701    -0.46522561    -0.48969043    -0.56082954
O       5.87901499     1.33944700     3.10290399     0.97510023     0.25958176     0.35283262
O       2.85860598     7.85482399     1.24867601     0.82676115    -0.65955454     0.87729826
O       3.05052301     3.30491698     1.56245801    -1.19083850     0.48075585    -0.30119996
O       0.00745902     7.92344801     1.38134202    -0.37182305    -0.23876918    -0.57534677
O       5.79728002     3.45928899     1.54346801     0.60537289    -1.66893376     1.42565795
