# total energy = -19075.74892317 eV

CRYSTAL
PRIMVEC
        7.60600008     0.00000000     0.00000000
        0.00000000     7.60600008     0.00000000
       -1.89786986    -1.89786986     4.85670466
PRIMCOORD
22 1
Ti      3.87969402     6.48519198     1.30773600     0.70739842    -0.05468044    -1.24635866
Ti      3.79946302     2.68082502     1.18167402     0.47566840     0.67071185     0.56136536
Ti      0.11126698     6.71570000     1.12229800    -0.34532602     0.50244182    -0.51858784
Ti     -0.01494402     2.94734800     1.08114399    -0.20668155    -0.78932845     0.30443570
Ti      5.78928722     2.98582522     3.54281380    -1.56649995     0.39843706    -0.22496878
Ti      6.06611021    -0.76807379     3.63024881    -0.94111615    -1.89286125     0.31387473
Ti      1.86795024     2.78847422     3.63330682     0.94745341     0.19424872    -0.37899643
Ti      1.25300722    -1.09761776     3.90627083     1.71033188     0.55580586    -1.08566028
O       3.81409001     4.67367802     0.77072301     0.00368645     1.05095166     0.02372615
O       4.05865102     0.78462100     0.81835298    -1.06930755     0.21835385     1.14401355
O       0.23774198     4.80326702     0.59317399    -0.13124072     0.32982329     0.24811875
O      -0.11464498     1.07165500     0.81092000     1.04883821    -0.69849700     0.15343424
O       5.65803624     4.93016822     4.00227380     0.44186661    -0.40675870    -0.56477156
O       5.41579022     0.91107225     3.98847783     0.75101540     1.76308117    -0.58503803
O       1.93673524     4.69248720     4.10219681    -0.90260693    -0.24165525     0.59488022
O       1.71788022     0.82553625     4.11215984    -0.24178303     0.00444544    -0.81755712
O       3.78691723     2.97573423     3.07182081     0.14261272    -0.67489323     1.52169383
O      -0.00736879     2.88017424     3.15155279     0.52541387     0.00440893    -0.03379408
O       5.94479998     6.55648798     1.68419698    -1.47169074    -0.10105288     0.55363533
O       5.72456001     3.07720698     1.54059002     0.34243970    -0.35207209     0.22898922
O       1.77143799     6.56094698     2.08850200     1.01116563     0.21627716    -0.40131541
O       1.95557400     2.90387302     1.56884100    -1.23163780    -0.69718728     0.20888138
