# total energy = -19961.27295893 eV

CRYSTAL
PRIMVEC
        7.60600008     0.00000000     0.00000000
        0.00000000     7.60600008     0.00000000
       -1.89786986    -1.89786986     4.85670466
PRIMCOORD
24 1
Ti      3.83514100     6.66741999     1.18377099    -1.12273792     0.09582556    -0.44810925
Ti      3.73056499     2.79998801     1.25913398     1.69902262     0.11582670    -1.81078389
Ti     -0.09669799     6.72290501     1.21333602     1.30003714     0.15416957     0.18980970
Ti     -0.00900400     2.86196102     1.28500900    -1.38870604    -0.17967287    -0.53830795
Ti      5.64061525     2.92437620     3.68606880     1.31219178    -1.14200860    -0.35851964
Ti      5.62996820    -0.91724177     3.59739780     1.33073433     1.31232574     1.22043910
Ti      1.98421323     2.78361521     3.62734579    -1.12955237    -1.30994644     1.10047730
Ti      1.95095724    -1.04134875     3.54897581    -0.95908688     1.47749038     0.46703001
O       3.89034397     4.75352700     0.79908998    -0.41484893     0.06520012    -0.12259539
O       3.93553100     1.00813500     0.75479700    -0.50985715    -1.50327804    -0.21101257
O      -0.07374101     4.81538502     0.77584000     0.15451616    -0.43381828     0.88473852
O      -0.06725398     1.02389601     0.77845799     0.00075925    -0.71794869     0.09039411
O       5.55616723     4.81615921     4.06992281     0.21025512    -0.32078766    -0.05271149
O       5.67798823     0.94651823     4.02462080     0.02842896     0.10323780     0.74243151
O       2.06479523     4.73590122     4.04390280    -0.21058757    -0.19902968    -0.25709113
O       2.12856622     0.91570721     4.09204682    -0.90775273     0.68359616    -0.32921548
O       3.84241925     2.60695823     3.13699280    -1.31010045     0.89718601     1.00507622
O       3.82978424    -0.92492378     3.22342279    -0.77655726    -0.24241912    -1.03090965
O      -0.03093978     2.72253821     3.29195479     1.41714142     0.71674309    -0.19430991
O       0.03992521    -0.92222275     3.25987082    -0.21888915    -0.31857188    -0.78330615
O       5.66603898     6.73818702     1.60275300     0.63923485    -0.18915433     0.34340489
O       5.71629802     2.84180598     1.78030700     0.32560488     0.59191290    -1.28019259
O       1.89357501     6.74793198     1.50872398     0.48567694    -0.34229083     0.81059405
O       1.88426498     2.72161601     1.60310300     0.04507248     0.68541213     0.56266968
