# total energy = -19931.18143615 eV

CRYSTAL
PRIMVEC
        5.09497255     0.00000000     0.00000000
        2.55182949     4.78462848     0.00000000
        0.00000000     0.00000000     9.43637700
PRIMCOORD
24 1
Ti      3.35889431     2.83536641     3.50082858     4.58902747    -5.01662548     1.18422382
Ti      4.28790786     1.94926219     5.93554852    -4.58902747     5.01662548    -1.18422382
Ti      5.43370348     1.94926390     1.21732227    -9.67147835     2.28532152     2.07021755
Ti      2.21309886     2.83536493     8.21905489     9.67147835    -2.28532152    -2.07021755
Ti      2.08297976     0.44305233     1.21736012     4.58859501    -5.01687745    -1.18139046
Ti      5.56382251     4.34157646     8.21901708    -4.58859501     5.01687745     1.18139046
Ti      0.93718406     0.44305049     5.93551067     9.67161693    -2.28625920     2.06692628
Ti      6.70961820     4.34157825     3.50086638    -9.67161693     2.28625920    -2.06692628
O       2.51113357     1.68474906     4.81531098    -0.63942511     0.73025168    -1.47311642
O       5.13566866     3.09987958     4.62106613     0.63942511    -0.73025168     1.47311642
O       1.83347796     1.68476832     0.09715279     2.21927551    -0.09790276    -1.65980686
O       5.81332434     3.09986036     9.33922401    -2.21927551     0.09790276     1.65980686
O       3.85975402     0.70756531     0.09712217     0.63923099    -0.73024011    -1.47301229
O       3.78704821     4.07706328     9.33925463    -0.63923099     0.73024011     1.47301229
O       4.53740969     0.70754609     4.81534155    -2.21925726     0.09700467    -1.66066483
O       3.10939250     4.07708256     4.62103551     2.21925726    -0.09700467     1.66066483
O       1.73727947     2.91028224     2.54900085     0.42025314    -2.58192846    -2.07355536
O       5.90952277     1.87434641     6.88737621    -0.42025314     2.58192846     2.07355536
O       3.73224701     1.87430172     2.16921767     2.41034686    -1.93577066    -3.32053571
O       3.91455523     2.91032692     7.26715923    -2.41034686     1.93577066     3.32053571
O       0.46136482     0.51796797     2.16918755     0.42020069    -2.58244654     2.07327305
O       7.18543740     4.26666062     7.26718935    -0.42020069     2.58244654    -2.07327305
O       2.63864058     0.51801266     6.88740628    -2.41043350     1.93622266    -3.32067404
O       5.00816164     4.26661594     2.54897073     2.41043350    -1.93622266     3.32067404
