# total energy = -19517.77772467 eV

CRYSTAL
PRIMVEC
        5.93400000     0.00000000     0.00000000
        0.00000000     9.29699974     0.00000000
        0.00000000     0.00000000     4.64899994
PRIMCOORD
23 1
Ti      4.52528201     6.99967202     2.24672600     0.77069052     0.22596071     0.33049332
Ti      4.41019199     2.32322000     2.30418798    -0.17890282    -0.61489215     0.39244588
Ti      1.54137400     7.05702499     2.26745900    -0.75155636     0.57765639     0.02674025
Ti      1.39437300     2.33531900     2.35580499     0.57976469    -1.17529000     0.00326736
Ti      2.92099402     4.53394898     0.11732299     0.74521704     0.41524694     0.87096152
Ti      3.00066202     0.04311498     4.59185102    -0.53684243    -0.28351668    -0.11738119
Ti      5.91100699     4.60202700     4.64365499    -0.27011171     1.26658631    -0.21535131
Ti      5.92223099     0.06311100     4.63331698     0.49968380    -0.52125562     0.10046435
O       4.46901703     5.48141698     1.06272799    -0.40394977     0.10850831    -0.64536307
O       4.43384002     1.01030399     0.90031100     0.06758301    -0.77599650    -0.27152968
O       1.51869299     5.56759302     1.02651697     0.63056920    -0.40058933    -0.73127009
O       1.43140001     0.97431300     0.81018799     0.24002722    -0.28013851     0.78429577
O       4.37940297     8.47572702     3.59276898     0.56569381    -0.66033590     1.21733038
O       4.52022799     3.62689499     3.87968799    -0.87872420     0.38066225    -0.93993164
O       1.46459800     8.35672898     3.68176998     0.14415538    -0.05630050     0.62371232
O       1.57091400     3.72925099     3.78602901    -0.55393461     0.03057223    -0.70296583
O       2.96426601     1.36890201     3.23018303    -0.19762303     0.87303769    -0.64224278
O       5.93162902     5.95860701     3.28433299     0.11835846     0.59926086    -0.00043837
O       5.88916599     1.34170198     3.29675400     0.30162677     1.31353724    -1.43749840
O       3.08681002     8.03155898     1.43130503    -0.99418168    -1.71821386     0.30988130
O       2.91352902     3.22577302     1.38321498     0.09240317    -0.52197553     1.19565006
O       0.02870601     7.84660200     1.44163298     0.08419183     0.41856084    -0.66648572
O       0.02119598     3.11713298     1.38174699    -0.07413856     0.79891404     0.51521507
