# total energy = -19935.94729149 eV

CRYSTAL
PRIMVEC
        5.76185378     0.00000000     0.00000000
        2.88583859     5.41088876     0.00000000
        0.00000000     0.00000000    10.67150488
PRIMCOORD
24 1
Ti      3.79854017     3.20648767     3.95905222     1.57521753    -3.57967498     0.79642007
Ti      4.84915235     2.20440122     6.71245278    -1.57521753     3.57967498    -0.79642007
Ti      6.14492121     2.20440315     1.37665765    -3.62155570    -0.54453748     1.02498068
Ti      2.50277148     3.20648599     9.29484741     3.62155570     0.54453748    -1.02498068
Ti      2.35562109     0.50104347     1.37670045     1.57521753    -3.57967498    -0.79642007
Ti      6.29207153     4.90984563     9.29480466    -1.57521753     3.57967498     0.79642007
Ti      1.05985213     0.50104139     6.71240998     3.62155570     0.54453748     1.02498068
Ti      7.58784048     4.90984766     3.95909497    -3.62155570    -0.54453748    -1.02498068
O       2.83981598     1.90526596     5.44558728     1.38584492     1.94663692    -1.22808068
O       5.80787660     3.50562298     5.22591772    -1.38584492    -1.94663692     1.22808068
O       2.07346199     1.90528774     0.10986913     1.01475489    -1.18924981     1.12333313
O       6.57423066     3.50560124    10.56163553    -1.01475489     1.18924981    -1.12333313
O       4.36495742     0.80017858     0.10983450    -1.38584492    -1.94663692    -1.22808068
O       4.28273515     4.61071031    10.56167016     1.38584492     1.94663692     1.22808068
O       5.13131148     0.80015684     5.44562186    -1.01475489     1.18924981     1.12333313
O       3.51638105     4.61073211     5.22588308     1.01475489    -1.18924981    -1.12333313
O       1.96467207     3.29120923     2.88263970     0.66438950     2.05881033     1.96950020
O       6.68302051     2.11967970     7.78886524    -0.66438950    -2.05881033    -1.96950020
O       4.22076102     2.11962917     2.45314669     1.25658523     1.20235576     0.64773723
O       4.42693157     3.29125977     8.21835808    -1.25658523    -1.20235576    -0.64773723
O       0.52175289     0.58576483     2.45311263     0.66438950     2.05881033    -1.96950020
O       8.12593968     4.82512405     8.21839214    -0.66438950    -2.05881033     1.96950020
O       2.98401239     0.58581536     7.78889925    -1.25658523    -1.20235576     0.64773723
O       5.66368018     4.82507352     2.88260564     1.25658523     1.20235576    -0.64773723
