# total energy = -19891.71098828 eV

CRYSTAL
PRIMVEC
        8.67973681     0.00000000     0.00000000
        0.00003054     4.97423495     0.00000000
        0.00000000     0.00000000    13.13171633
PRIMCOORD
24 1
Ti      3.14600534     2.94772718     4.87177328     0.46443936    -0.58370980     2.56373893
Ti      5.53376223     2.02650818     8.25994360    -0.46443936     0.58370980    -2.56373893
Ti      7.48572499     2.02650994     1.69403274     0.45170571     0.58472538    -2.56510059
Ti      1.19404257     2.94772556    11.43768428    -0.45170571    -0.58472538     2.56510059
Ti      3.14599020     0.46060977     1.69408537     0.46391948    -0.58518021    -2.56343734
Ti      5.53377736     4.51362572    11.43763165    -0.46391948     0.58518021     2.56343734
Ti      1.19402743     0.46060781     8.25989097    -0.45208855    -0.58485522    -2.56487896
Ti      7.48574013     4.51362762     4.87182591     0.45208855     0.58485522     2.56487896
O       2.74720234     1.75151277     6.70101454     0.66643764     1.45323535    -2.26881323
O       5.93256522     3.22272252     6.43070233    -0.66643764    -1.45323535     2.26881323
O       1.59273846     1.75153281     0.13519836    -0.66600801     1.45350969    -2.26998514
O       7.08702917     3.22270255    12.99651811     0.66600801    -1.45350969     2.26998514
O       5.93255008     0.73560505     0.13515576    -0.66682048    -1.45398175    -2.26902509
O       2.74721748     4.23863031    12.99656071     0.66682048     1.45398175     2.26902509
O       7.08701403     0.73558501     6.70105714     0.66677677    -1.45460215    -2.27075982
O       1.59275339     4.23865035     6.43065967    -0.66677677     1.45460215     2.27075982
O       0.31537348     3.02561171     3.54720431    -2.30267287     0.73878594     0.11204203
O       8.36439408     1.94862365     9.58451257     2.30267287    -0.73878594    -0.11204203
O       4.65525260     1.94857714     3.01869584    -2.30312050    -0.73926365    -0.11165457
O       4.02451497     3.02565822    10.11302077     2.30312050     0.73926365     0.11165457
O       0.31535834     0.53849416     3.01865393    -2.30237283     0.73851443    -0.11148025
O       8.36440922     4.43574119    10.11306268     2.30237283    -0.73851443     0.11148025
O       4.02449983     0.53854068     9.58455441     2.30325806     0.73890190    -0.11145222
O       4.65526773     4.43569468     3.54716240    -2.30325806    -0.73890190     0.11145222
