# total energy = -19945.24264412 eV

CRYSTAL
PRIMVEC
        6.61461181     0.00000000     0.00000000
        0.00002603     4.69329809     0.00000000
        0.00000000     0.00000000    10.27664993
PRIMCOORD
24 1
Ti      2.39749417     2.78124409     3.81256383     0.38115770     0.32388224    -0.01025511
Ti      4.21714379     1.91205401     6.46408622    -0.38115770    -0.32388224     0.01025511
Ti      5.70468605     1.91205564     1.32572011     0.38172231    -0.32382079     0.01041991
Ti      0.90995191     2.78124268     8.95092999    -0.38172231     0.32382079    -0.01041991
Ti      2.39748115     0.43459515     1.32576131     0.38115770     0.32388224     0.01025511
Ti      4.21715680     4.25870311     8.95088879    -0.38115770    -0.32388224    -0.01025511
Ti      0.90993889     0.43459340     6.46404497    -0.38172231     0.32382079     0.01041991
Ti      5.70469907     4.25870486     3.81260502     0.38172231    -0.32382079    -0.01041991
O       2.09357562     1.65259006     5.24409582     1.09227342     0.35579299    -0.15122026
O       4.52106234     3.04070808     5.03255423    -1.09227342    -0.35579299     0.15122026
O       1.21378743     1.65260898     0.10580387    -1.09176974     0.35555645    -0.15152751
O       5.40085064     3.04068917    10.17084583     1.09176974    -0.35555645     0.15152751
O       4.52104938     0.69405898     0.10577051    -1.09227342    -0.35579299    -0.15122026
O       2.09358858     3.99923911    10.17087920     1.09227342     0.35579299     0.15122026
O       5.40083763     0.69404012     5.24412912     1.09176974    -0.35555645    -0.15152751
O       1.21380027     3.99925808     5.03252087    -1.09176974     0.35555645     0.15152751
O       0.24034011     2.85472995     2.77597954    -1.02839100     0.27569409     0.68610016
O       6.37429785     1.83856820     7.50067050     1.02839100    -0.27569409    -0.68610016
O       3.54765342     1.83852444     2.36237816    -1.02838688    -0.27536936    -0.68596055
O       3.06698454     2.85477371     7.91427171     1.02838688     0.27536936     0.68596055
O       0.24032709     0.50808084     2.36234531    -1.02839100     0.27569409    -0.68610016
O       6.37431086     4.18521725     7.91430451     1.02839100    -0.27569409     0.68610016
O       3.06697158     0.50812461     7.50070324     1.02838688     0.27536936    -0.68596055
O       3.54766637     4.18517354     2.77594674    -1.02838688    -0.27536936     0.68596055
