# total energy = -19907.44663659 eV

CRYSTAL
PRIMVEC
        4.80154481     0.00000000     0.00000000
        2.40486549     4.50907396     0.00000000
        0.00000000     0.00000000     8.89292074
PRIMCOORD
24 1
Ti      3.16545014     2.67207306     3.29921018     6.92955342    -5.80065051     1.28186921
Ti      4.04096029     1.83700102     5.59371065    -6.92955342     5.80065051    -1.28186921
Ti      5.12076768     1.83700263     1.14721471   -14.52105791     4.78890587     3.06956227
Ti      2.08564290     2.67207166     7.74570617    14.52105791    -4.78890587    -3.06956227
Ti      1.96301758     0.41753623     1.14725038     6.93042168    -5.80083974    -1.28086853
Ti      5.24339294     4.09153803     7.74567055    -6.93042168     5.80083974     1.28086853
Ti      0.88321011     0.41753449     5.59367498    14.52188658    -4.78874955     3.06222100
Ti      6.32320040     4.09153971     3.29924581   -14.52188658     4.78874955    -3.06222100
O       2.36651332     1.58772163     4.53798940    -2.67852536    -0.61562106    -1.59965768
O       4.83989717     2.92135248     4.35493143     2.67852536     0.61562106     1.59965768
O       1.72788499     1.58773978     0.09155761     3.00547621     1.10463709    -4.19920874
O       5.47852555     2.92133437     8.80136294    -3.00547621    -1.10463709     4.19920874
O       3.63746452     0.66681548     0.09152875     2.67886063     0.61596327    -1.59938540
O       3.56894596     3.84225859     8.80139180    -2.67886063    -0.61596327     1.59938540
O       4.27609290     0.66679736     4.53801821    -3.00483498    -1.10509809    -4.19907608
O       2.93031754     3.84227676     4.35490257     3.00483498     1.10509809     4.19907608
O       1.63722672     2.74267436     2.40219975     0.12438205    -6.87223580    -5.80067931
O       5.56918376     1.76639975     6.49072103    -0.12438205     6.87223580     5.80067931
O       3.51730085     1.76635764     2.04428891     3.13089493    -4.64216473    -6.63926034
O       3.68910964     2.74271647     6.84863173    -3.13089493     4.64216473     6.63926034
O       0.43479407     0.48813736     2.04426052     0.12464481    -6.87170075     5.80107449
O       6.77161640     4.02093671     6.84866012    -0.12464481     6.87170075    -5.80107449
O       2.48667699     0.48817947     6.49074937    -3.13052906     4.64193153    -6.63931176
O       4.71973349     4.02089460     2.40217137     3.13052906    -4.64193153     6.63931176
