# total energy = -39037.10101392 eV

CRYSTAL
PRIMVEC
        7.60600008     0.00000000     0.00000000
        0.00000000     7.60600008     0.00000000
       -3.79573973    -3.79573973     9.71340985
PRIMCOORD
46 1
Ti      1.78832245     4.87444342     6.22188365     0.03269030     0.10214534    -1.05280466
Ti      3.77821301     6.72819298     1.33927999    -0.22321349    -0.32272859     0.23339995
Ti      1.88763743     0.87904644     6.06127761     0.38571730    -0.43273971     0.65321574
Ti      3.93005402     2.65686498     1.23198100    -1.05163018    -0.11722744     0.24464313
Ti     -1.98434457     4.75952846     6.09863064     0.09800303     1.65630296     0.55995382
Ti      0.02947300     6.61999501     1.21206901     0.30443313     0.14380751     0.50164555
Ti     -1.90466656     1.01102346     5.89061662    -0.00926060    -1.11822434     0.15464240
Ti     -0.00375801     2.87429302     1.09775402     1.39494482    -0.28224861     1.03977893
Ti      3.81909047     0.98687043     8.48567265     0.01396624    -1.46572346    -0.66085475
Ti      5.86638099     2.98517602     3.59773298    -0.48125618    -0.97459270    -0.53054091
Ti      3.62537043    -2.90692156     8.48749963     1.67560989     0.69006300     0.75631779
Ti      5.72629798    -0.97512503     3.56066999     0.58351645     0.78732016     0.93030337
Ti     -0.09013857     1.00704643     8.36781963     0.32323690    -1.37235228     0.37359968
Ti      2.01015397     2.76793299     3.54843102     0.27310165     0.98035300    -1.63958204
Ti     -0.13231553    -2.83976356     8.59153561    -0.93816761     0.39901762     0.46466253
Ti      1.90906101    -1.09165499     3.75004501    -0.22548737     0.39664629    -0.16768587
O       1.81311043    -0.94674255     5.70192461    -0.28064321    -0.14134876    -0.51160344
O       3.56482202     0.84721902     1.10403499     0.79570170     1.32019409    -2.22204434
O      -1.75974857     2.97141646     5.53896665    -0.64723998    -0.63108290     0.43586565
O       0.22129902     4.75535399     0.88235099    -0.66334975    -0.07358217    -1.31179789
O      -1.81409857    -0.95120653     5.63505560    -0.10751329    -0.07144738    -0.96916176
O       0.01766399     0.88198401     0.71711201     0.24129684     0.16998958     0.43790711
O       3.74234744     2.78119148     8.85405060    -0.33874502     0.86471194    -0.02614402
O       5.50535902     4.78499098     3.83368798     0.34103742     0.53865377     0.92381725
O       3.91142745    -0.96920655     8.98385763    -0.43205811     0.55815739    -1.25554984
O       5.93618598     1.00435000     3.93904500    -0.55518031    -0.48102633     0.87163103
O       0.02313145     2.72736648     9.07803260    -0.04389800     0.27919928    -0.10958097
O       2.02342399     4.49049300     4.29114399    -0.23015496     1.19185305     0.27184644
O      -0.12654353    -0.91521756     8.92274665     0.28762170     0.42950397     0.42925355
O       1.79284898     1.05103799     3.97647699     0.14079443    -1.84123759     1.44376443
O       1.82708246     0.75372843     8.06818461     1.34169263     0.88721707    -0.29761121
O       3.93385499     2.76009498     3.16429898     0.07314637     0.00176712     0.53985396
O       1.79781345    -2.72081955     8.20522765    -0.19359463    -0.58646808     0.08129985
O       3.82042400    -0.80530099     3.31551101    -0.55922440    -0.61334614     0.02725807
O      -1.94973357     1.10039245     7.94002560    -0.03848120    -0.01188724     0.76253035
O       0.03366001     2.91975998     3.13594000     0.92115513     0.21524461     0.04987865
O      -1.97041657    -2.73758055     8.10348464     0.17175721    -1.06554499    -0.50203842
O       0.01838298    -1.16604599     3.20245498    -0.02811220     0.24802053     0.46253957
O       3.71951746     4.96732043     6.52602261     0.19899934    -1.05740719     0.12139134
O       5.74454100     6.77586100     1.53038802    -0.85326538    -0.84842811     0.81167494
O       3.86453447     0.75294144     6.46286361    -1.50116279     1.07799736    -0.49665093
O       5.80064199     2.95797599     1.50277100    -0.64352036     0.10630590    -0.25918169
O      -0.06902953     4.76769043     6.51009760     0.20429325    -0.39759425     0.52253989
O       1.87862898     6.54932699     1.74227699     1.22957244    -0.30060038    -0.40450744
O      -0.03340855     0.98273343     6.51549161     0.59463159     0.45904416    -1.63432953
O       2.11071803     2.86017102     1.60372801    -1.58176022     0.70332347    -0.05354607
