# total energy = -19886.10607348 eV

CRYSTAL
PRIMVEC
        9.04462750     0.00000000     0.00000000
        0.00002812     3.20873960     0.00000000
        0.00000000     0.00000000    14.38923950
PRIMCOORD
24 1
Ti      3.27825890     1.90149601     5.33830535     0.14225482     0.13644310     2.02059087
Ti      5.76639635     1.30724328     9.05093458    -0.14225482    -0.13644310    -2.02059087
Ti      7.80041837     1.30724432     1.85625713     0.14230881    -0.13609085    -2.02113543
Ti      1.24423694     1.90149510    12.53298292    -0.14230881     0.13609085     2.02113543
Ti      3.27824521     0.29712627     1.85631483     0.14230573     0.13646649    -2.02089041
Ti      5.76641010     2.91161315    12.53292522    -0.14230573    -0.13646649     2.02089041
Ti      1.24422319     0.29712517     9.05087688    -0.14199745     0.13654568    -2.02121616
Ti      7.80043212     2.91161424     5.33836305     0.14199745    -0.13654568     2.02121616
O       2.86269147     1.12985166     7.34271895     1.53725647     0.42021689    -1.72454469
O       6.18196384     2.07888769     7.04652098    -1.53725647    -0.42021689     1.72454469
O       1.65969469     1.12986469     0.14814531    -1.53834687     0.42048299    -1.72505248
O       7.38496069     2.07887466    14.24109419     1.53834687    -0.42048299     1.72505248
O       6.18195009     0.47451783     0.14809858    -1.53711120    -0.42012844    -1.72258294
O       2.86270522     2.73422146    14.24114092     1.53711120     0.42012844     1.72258294
O       7.38494694     0.47450486     7.34276561     1.53763030    -0.42032282    -1.72381784
O       1.65970825     2.73423449     7.04647431    -1.53763030     0.42032282     1.72381784
O       0.32862912     1.95173731     3.88689264    -1.33887341     0.49813651     1.20369376
O       8.71602620     1.25700198    10.50234723     1.33887341    -0.49813651    -1.20369376
O       4.85095483     1.25697223     3.30777304    -1.33858545    -0.49824398    -1.20333483
O       4.19370048     1.95176712    11.08146664     1.33858545     0.49824398     1.20333483
O       0.32861537     0.34736751     3.30772711    -1.33922128     0.49864713    -1.20415322
O       8.71603995     2.86137184    11.08151257     1.33922128    -0.49864713     1.20415322
O       4.19368679     0.34739726    10.50239310     1.33881968     0.49865767    -1.20496826
O       4.85096852     2.86134203     3.88684671    -1.33881968    -0.49865767     1.20496826
