# total energy = -19518.09970937 eV

CRYSTAL
PRIMVEC
        5.17600016     0.00000000     0.00000000
        0.00000000     5.50899976     0.00000000
        0.00000000     0.00000000     9.26300011
PRIMCOORD
23 1
Ti      1.80469001     3.15724499     3.45014698    -0.06678083     0.17185517     2.04182768
Ti      3.41536897     2.25776400     5.84598899     0.92944642    -0.75809596    -2.07018490
Ti      4.40008899     2.10952600     1.47289502     1.11885992    -1.08457065    -2.33062643
Ti      0.87708700     3.43547300     7.71812899    -0.01758455    -0.80016025     1.08861577
Ti      1.95731399     0.34129303     1.34596599     0.77220515    -0.18493875    -1.90243732
Ti      3.17460200     5.20586698     7.96044999     0.40794141    -0.79850601     0.84049445
Ti      0.76943700     0.50574602     5.89595401    -0.95884391    -0.12453040    -2.11124055
Ti      4.42537398     4.84381300     3.34681099     0.54841702     1.56426849     3.09165962
O       1.66473300     1.98362600     4.87250198     0.00090451    -0.42388637    -0.73787423
O       3.50280700     3.51600700     4.40892800     0.25603389     0.37471811     0.45451310
O       0.22064199     2.61828003     9.21731502    -0.39379545    -0.01011601     0.89109018
O       3.46666699     0.86973498     0.12068797    -0.11474992     0.00819925     0.88463542
O       1.61220803     4.72879998     9.07568099     0.84510752     0.47512770     0.47986882
O       4.30376698     0.77688602     4.87003098    -0.41739664    -0.51324175    -1.22938834
O       0.91614600     4.65850000     4.47629798     0.27802326     0.03751884     0.32519222
O       0.10234299     3.40862398     2.51317002     0.47595071    -0.31270077    -0.69321621
O       5.13106502     2.05404701     6.73493898    -0.35214202     0.86496982     0.35655686
O       2.69624101     1.94592800     2.26766401    -0.50117838     0.31430334    -0.27566067
O       2.74251402     3.40952501     7.10201903    -1.02470018     1.14745471     1.43583412
O       0.28376500     0.69937902     2.09085001    -0.91777927    -0.23991770     0.32029092
O       5.00899600     4.86875699     7.21133001    -0.71988550     0.12388891    -0.01736421
O       2.45881500     0.85800000     6.86171599    -0.65017669    -0.01539989    -0.32153920
O       2.70770902     4.63497098     2.43180003     0.50212352     0.18376015    -0.52104685
