# total energy = -19960.52363803 eV

CRYSTAL
PRIMVEC
        7.60600008     0.00000000     0.00000000
        0.00000000     7.60600008     0.00000000
       -1.89786986    -1.89786986     4.85670466
PRIMCOORD
24 1
Ti      3.76947100     6.71098202     1.29866199     0.26918277    -0.00475011     0.44889704
Ti      3.70087799     2.96684897     1.17454701     1.20311860     0.09999461     0.82191668
Ti      0.02766301     6.45232298     1.20192902    -0.03186704    -0.06482653    -0.51938823
Ti      0.09590703     2.73929900     1.12089198    -1.75287157    -0.07051330    -0.03514725
Ti      5.70598123     2.83515522     3.48007582     0.87125308    -1.51882242    -0.26795661
Ti      5.67250024    -1.07736376     3.62509383     0.43876252     0.91252650     0.57920008
Ti      1.94764020     3.00949823     3.73435781    -0.22354568     0.01230453    -1.15866781
Ti      1.81864023    -0.87285877     3.72816480     0.06167282    -0.12197549    -0.40096934
O       3.74929702     4.83474301     0.88493301    -0.01173349     0.35911897    -0.15605419
O       3.78084900     1.11680297     0.92326798    -0.40920973    -1.54133501    -0.76129339
O       0.08941598     4.58388500     0.72541300     0.09813210     1.87281975    -0.63430064
O       0.31241101     0.86874198     0.71395198    -0.73488995    -0.81624611     0.11979828
O       5.78295123     4.61311125     4.00055583    -0.24122613     1.35801837     1.16546298
O       5.74419820     0.84600721     3.81345780    -0.01362968     0.47523723     0.88593769
O       1.73558523     4.84429323     4.18925980     0.21796252     0.85740949     0.64656275
O       1.84514021     1.17048520     4.01712982    -0.38223319    -2.31875642     0.91417895
O       3.81908523     3.11514222     3.36000783    -1.15439309    -0.44597935    -1.21325107
O       3.81019622    -0.97460379     3.38109379    -1.31404709     0.10259322    -0.72267386
O      -0.07349378     3.02083722     3.02410780     0.64699958    -0.55447403     1.22896540
O      -0.02583078    -1.05272479     3.17145679     1.00135224     0.42988707     0.24481848
O       5.69667200     6.50236801     1.63909499    -0.33281683     0.32846112    -0.68997816
O       5.74333897     2.84849600     1.42023501    -1.49219195    -0.19775133     0.89544126
O       1.88625199     6.44003300     1.79523901     0.76091261     0.72553036    -0.37596613
O       1.83952701     2.88256702     1.79824902     2.52530632     0.12152941    -1.01553316
