# total energy = -39032.81282702 eV

CRYSTAL
PRIMVEC
        5.93200024     0.00000000     0.00000000
        0.00000000     9.29399984     0.00000000
        0.00000000     0.00000000     9.29399984
PRIMCOORD
46 1
Ti      4.41083801     7.11999798     6.85476403    -0.20734026    -1.12582941     0.35565029
Ti      4.45331200     6.73294599     2.35385402     0.16068964     2.15704091    -1.52087673
Ti      4.54285800     2.35321398     7.03399202    -0.57587230    -0.32113425     1.02606569
Ti      4.24028000     2.66677102     2.04820399     0.68413789    -1.06583630     0.05871039
Ti      1.43024498     6.93540402     7.11552501     0.06189830    -0.71738844    -0.23221338
Ti      1.52627202     7.13285000     2.18169398    -0.21885084     0.35252409    -0.67501382
Ti      1.49427400     2.38980801     6.88095301     0.50074747    -0.58077437     0.98268679
Ti      1.22247501     1.90762498     2.86899198     1.41936800     1.19888579    -2.32885571
Ti      3.06791701     4.56653799     4.67371300    -0.48451943     0.07471834    -0.17913397
Ti      2.95488100     4.83504401     9.20959300     0.70462600     0.28511848    -0.20857054
Ti      2.99826998     9.25901498     4.64884098     0.01063512    -0.43835551     0.08275459
Ti      2.86421399     9.21146401     9.26298301     0.23579776     1.99778749     1.09337565
Ti      0.09639498     4.81007298     4.61474202     0.54657020    -0.37544008     0.32631399
Ti      0.05203903     4.48706700     0.12357300    -0.57662358     0.44143492     0.22232440
Ti      5.84803003     9.03972901     4.80295697    -0.49358077     1.21457210    -1.63045102
Ti      5.82168599     0.00971898     9.27088400    -0.43399003     1.05192997     1.75009324
O       4.53400301     5.61916002     5.40098400    -0.32582265    -0.00885771     0.48140042
O       4.54517299     5.79478802     0.67274801     0.51123860    -2.38727274     0.46286045
O       4.58227599     0.76368802     5.65038301    -1.46467574     1.23429453    -0.04497092
O       4.40928699     0.99781302     0.70967702    -0.15549318     0.20490646     1.58968848
O       1.64239902     5.62258300     5.52120100    -0.56924451    -0.73030156    -0.41175487
O       1.48348402     5.67452402     0.86938901    -0.24571399    -1.00767407    -0.28455798
O       1.55612699     0.81291400     5.62516602    -0.51086990     1.17178456    -0.47307442
O       1.51022700     0.76133699     1.12745198     0.21218371     0.27393469     0.19042677
O       4.52954400     8.50076700     8.07048102    -0.49004576     0.37249616     1.31513698
O       4.37712899     8.23634602     3.65764003     0.24954597     1.80919572     1.36829122
O       4.44319302     3.80833701     8.38632099    -0.08864884    -0.34667225     0.48146033
O       4.49707702     3.78704498     3.67497000     0.45296838    -0.20186021    -0.53866868
O       1.33834499     8.43387201     8.49331100     1.29362970    -1.52351546    -2.29748747
O       1.31365400     8.42911000     3.82488401     2.69158888    -0.01090714    -2.67089689
O       1.47688698     3.86676098     8.36117698     0.90661219    -0.16571717     0.21685052
O       1.61718399     3.59715300     3.87344899    -1.10947745     0.00256982    -0.50505561
O       3.06134400     6.22357902     7.92371699    -0.76110055    -0.02084343    -0.60395441
O       2.98776597     6.01770801     3.00939599    -1.75859536    -1.34521170     1.92106343
O       2.92621398     1.48942700     8.12217598    -0.13413810     0.33805905    -2.02424364
O       3.12468900     1.67716099     3.15063001    -0.87684421    -1.85860411     0.61969806
O       5.90412101     6.06564898     7.75355402     0.45062019     0.08380025     0.02865778
O       0.00579502     6.03800598     3.08390198     2.37672710    -0.94315401     1.03584154
O       0.05418801     1.59969499     7.97906899     0.66460290    -0.37586585    -0.62303535
O       2.91632599     7.74394601     5.85758300     0.23056839     0.95433317     0.68786034
O       3.15999698     7.67363502     1.21766098    -1.99081697     2.08957719     0.05918630
O       3.10099001     3.07248101     6.07577400    -0.54226643     1.44594473    -0.92746230
O       0.07691300     7.79148798     6.00067099     0.44031315    -1.10233132     1.28808022
O       0.00027602     8.02210099     1.45839398     0.28520230    -0.75717448    -0.17380355
O       0.09406798     3.46514900     6.09469298    -0.47281910    -1.77310847     0.40301337
O       0.16620198     3.05383899     1.53357297    -0.60292212     0.42892110     0.30658977
