# total energy = -19958.01859501 eV

CRYSTAL
PRIMVEC
        7.60600008     0.00000000     0.00000000
        0.00000000     7.60600008     0.00000000
       -1.89786986    -1.89786986     4.85670466
PRIMCOORD
24 1
Ti      3.68682701     6.86608403     1.36350001     0.75805662    -2.18913292    -1.78061764
Ti      3.63975600     3.04749802     1.15620001     1.86497891     0.47725117     1.26740083
Ti      0.02458700     6.51386301     1.37539099    -1.54893545    -2.00613227    -1.81850080
Ti      0.15522600     2.67922299     1.24275600    -2.17028030     2.15598239    -1.00037573
Ti      5.83656524     2.73019022     3.50062980     0.18569002    -0.25730967     1.02602378
Ti      5.57958423    -1.13358980     3.66236780     1.31872753    -0.50888013    -1.04635376
Ti      2.05765721     2.92588224     3.68055880    -0.92784463     2.43258280     0.65251331
Ti      1.76227523    -0.83901577     3.63221883     1.58461955    -2.46399295     0.92881342
O       3.63140500     4.97918300     0.77857902     0.77744661    -1.19950774    -0.27952890
O       3.64871699     0.93305199     0.70887002     0.38036914     1.10560691     1.30344411
O      -0.01460000     4.49815400     0.71682599     0.74215897     2.87691921     0.28737616
O       0.18944498     0.68273401     0.66542002    -0.66381460     0.66604452     1.08003419
O       5.60489520     4.56849325     3.69273083    -0.08196731     2.32784193     1.80248925
O       5.98275924     0.85749723     4.11268081    -0.65355333    -1.65706169    -0.69443594
O       1.79487123     4.84559421     3.65464181     1.27436287    -0.49868236     1.98658365
O       1.67867121     0.97774324     4.15549279     0.73596827     1.81017891    -0.43242243
O       3.88162721     2.79065824     3.19070180    -1.31037607    -0.72013232    -0.45417603
O       3.76918122    -0.74160879     3.14385781     0.67583657     0.42232879     1.90959271
O       0.06294124     2.99216624     3.24720581     0.80766942    -1.40799292    -0.43706302
O       0.05221323    -0.91064679     3.26285782    -3.15456837    -0.12445404    -0.25961672
O       5.79963401     6.32680902     1.67689201    -1.29601131     1.48525614    -0.11789104
O       5.86659801     2.92299500     1.58395901    -1.15914527    -1.57131357    -0.68130608
O       1.83428599     6.68625499     1.75586102     1.55668424     0.23568951    -1.97308510
O       1.94158298     3.17256298     1.76320002     0.30392765    -1.39108945    -1.26889876
