# total energy = -19515.99963232 eV

CRYSTAL
PRIMVEC
        5.93400000     0.00000000     0.00000000
        0.00000000     9.29699974     0.00000000
        0.00000000     0.00000000     4.64899994
PRIMCOORD
23 1
Ti      4.49282402     6.85679400     2.30011802     0.12605892     1.44586194     0.38762788
Ti      4.42683699     2.31512703     2.34795300     0.96080181    -0.27141552     0.28379539
Ti      1.47209702     7.03720598     2.36619999     0.57238923     0.71104064    -0.20009746
Ti      1.43045099     2.42220599     2.30922098     0.25734001    -1.13912588    -0.18211130
Ti      2.96856197     4.66422199     0.07075603    -0.70641625    -1.18116960     0.32067299
Ti      3.03659401     0.03070498     4.62122899    -1.88459412    -1.83517467    -0.91676317
Ti      0.04012502     4.65877602     0.01097201    -0.37199711    -0.17848759     0.06816974
Ti      5.93342198     9.25699199     0.12985698     1.23056591     0.50443443    -1.89965848
O       4.29647201     5.63821998     0.80112901     1.37461716     0.06598430    -0.11245881
O       4.36808800     0.87442402     0.71502001     0.96042334     0.64871502     1.90541363
O       1.52982799     5.61826100     0.94977998    -0.09301740    -1.04728090    -0.79228162
O       1.45391899     0.96611901     1.02982200     0.21615966    -0.35754648    -0.93563661
O       4.48701101     8.27023998     3.48427399    -1.03571247     0.59810258     2.01380856
O       4.50630598     3.65380598     3.57803399    -0.32194594     2.44565866     1.71170254
O       1.44518699     8.32025099     3.68941199     0.53572245     0.79955347     0.73142461
O       1.39422600     3.70251701     3.91660498     0.68162001    -0.51347932    -2.03370402
O       3.02456999     1.60733700     3.25663400    -2.40579138    -1.56938755     0.37314305
O       0.07634001     6.01044198     3.29757200    -0.63032366     0.41046726    -1.23332573
O       5.77512401     1.18763203     3.28476300     1.15333560     2.19664723    -1.67866771
O       2.94941602     7.84215300     1.31426800     0.40794629     0.12487416     0.45660367
O       3.06314198     3.27221298     1.27223202    -1.39176771    -0.56517239     0.89215487
O       0.13762101     7.89651898     1.36629602    -1.19842377    -0.88281868     0.15607142
O       5.79064202     3.28949999     1.35377098     1.56300942    -0.41028137     0.68411681
