# total energy = -4987.81546260 eV

CRYSTAL
PRIMVEC
        2.75999789     0.00000000     0.00000000
        0.21609033     4.31910063     0.00000000
       -0.00000119    -0.00005613     4.32585591
PRIMCOORD
6 1
Ti      1.48804341     2.15952211     2.16292786     0.00000000     0.00000000     0.00000000
Ti      0.00000000     0.00000000     0.00000000     0.00000000     0.00000000     0.00000000
O       1.42211146     0.84171805     0.84304554    -0.85162476     1.09660496     1.10563930
O       1.55397531     3.47732617     3.48281013     0.85162476    -1.09660496    -1.10563930
O       0.06593136     1.31778131     3.00597428     0.85176308    -1.09786660     1.10689143
O       0.15015767     3.00126311     1.31988139    -0.85176308     1.09786660    -1.10689143
