# total energy = -19515.10528421 eV

CRYSTAL
PRIMVEC
        5.17600016     0.00000000     0.00000000
        0.00000000     5.50899976     0.00000000
        0.00000000     0.00000000     9.26300011
PRIMCOORD
23 1
Ti      1.97640802     3.17698399     3.44456802    -2.42617818    -0.58946778     2.85395591
Ti      3.38842999     2.20091698     5.76527300    -1.05212717    -0.18987090    -1.22733326
Ti      4.23449900     2.36637001     1.51058102     1.78401458    -1.39614733    -0.63626908
Ti      0.86421403     3.31100702     7.75767901    -1.33469357     0.92162667     0.82620348
Ti      1.93370400     0.18598199     1.46003099    -1.06390591     1.89181121    -2.95945371
Ti      3.21153598     5.07252002     8.05511499    -0.41626176     1.34459489    -0.17796746
Ti      0.76194301     0.57593202     5.96235099     0.65541738    -1.45602449    -3.14033654
Ti      4.57465102     5.12893101     3.21349500     1.83316355     0.26150571     2.82319496
O       1.71296703     1.89389802     4.80758902    -0.74908784    -0.69774264    -0.22568432
O       3.31469602     3.55110199     4.64225299     2.51046282     2.43814152    -1.12850465
O       5.06445700     2.43941399     9.23420598     0.95148259     1.84850919    -2.44417205
O       3.43916401     0.64369697     0.41471399    -0.99493347    -0.37116022    -1.17653827
O       1.68303898     4.50611002     9.07248698    -0.77122299     0.16139232     1.50009090
O       4.36102502     0.91114898     4.47780798    -0.44873223    -0.53619759     0.74734155
O       1.04256898     4.76029698     4.31159298    -1.30975412     0.67378046     0.86593835
O       0.25051902     3.27851898     2.57979799    -1.06367220     1.10833151    -0.67556686
O       5.05391399     2.11519000     6.49704200     1.41094069     0.97019791     2.11705253
O       2.72825502     1.77180900     2.42914398    -1.09938844    -0.11420819    -0.58013056
O       2.61199499     3.49804599     7.07652300    -0.14725767    -0.91050304     0.32587228
O       0.16273597     0.83395302     1.93298601     0.77248309    -1.65249361     0.69896982
O       4.83168098     4.93202500     7.10663800     1.78241947    -0.97424946     0.35035767
O       2.54941099     0.82203902     6.82371201    -1.15487672    -1.04273956     1.29800546
O       2.82471001     4.58938299     2.45125502     2.33170758    -1.68908633    -0.03502641
