# total energy = -19073.66565923 eV

CRYSTAL
PRIMVEC
        7.60600008     0.00000000     0.00000000
        0.00000000     7.60600008     0.00000000
       -1.89786986    -1.89786986     4.85670466
PRIMCOORD
22 1
Ti      3.88966202     6.82874703     1.09247400    -0.95382975    -1.97690447    -0.17085835
Ti      3.70488100     2.77993801     1.27847498     0.82366580     3.65335100     0.15065102
Ti      0.00856801     6.73244799     0.90769202     0.94651084    -0.33269419     0.88365532
Ti     -0.07288797     2.98153502     1.31963799    -1.98749228    -0.04232166    -1.02445052
Ti      5.50734121     2.78533620     3.63023880     2.74300325    -0.53362392     0.30227108
Ti     -1.29259978    -0.93893978     3.72140181    -1.30873699     0.10954652     0.27051306
Ti      1.87304621     2.62050823     3.67943684    -2.10435539     0.06984739     1.56178660
Ti      1.66481322    -1.03290880     3.65171483    -0.28608547     1.06065501    -0.49826429
O       3.90275498     4.69156199     0.76025001    -0.62426177     0.09314339     0.10078728
O       4.07266501     1.12696699     0.69176500    -1.06746844    -3.23548565     0.33335599
O      -0.25894500     4.85008201     0.81169101    -0.26399403    -0.34822751    -0.09768987
O       7.13276401     0.84276002     0.47480201     0.91593707    -0.65336281     1.33135525
O      -1.38387376     4.72771824     3.77620679    -0.67950734     0.57836550     1.45464843
O       5.54727420     0.91008824     4.22042982     0.66824513     0.88596468    -0.29232271
O       1.83973921     4.72446321     4.01041784     0.17968521     1.17674627     1.28937837
O       2.31746821     0.87418224     3.78145882    -0.98665632    -0.60827155     0.43938884
O       3.70492625     3.00868821     3.25552379     0.65087861     0.01885134    -0.79450922
O      -0.11428376     2.52025825     3.51808784     0.58027866     0.13723834    -1.58478641
O       5.48737297     6.75071598     2.11262402     0.16516516     0.13586614    -1.75619318
O       5.58385998     2.81428400     1.59720199     0.53390442     0.15637070     1.65675958
O       1.97918001     6.69657802     1.86361299     0.55692043     0.22580876    -2.13356262
O       1.67944598     3.05174001     1.80196199     1.49819291    -0.57086328    -1.42191339
