# total energy = -19960.19514492 eV

CRYSTAL
PRIMVEC
        7.60600008     0.00000000     0.00000000
        0.00000000     7.60600008     0.00000000
       -1.89786986    -1.89786986     4.85670466
PRIMCOORD
24 1
Ti      3.84085500     6.58309803     1.18784798    -0.54379752    -1.12496347     0.21182838
Ti      3.81879302     2.63686198     1.19047799    -0.39555640     0.80615915    -0.13250674
Ti     -0.05489097     6.72979898     1.16528302     0.25391941    -0.32982252     0.95146587
Ti     -0.03552102     2.84524298     1.20723799     0.75142215     0.29014010     1.43530010
Ti      5.65499124     2.87573920     3.62373680     0.03836267     1.44104626     0.69225024
Ti      5.66792624    -0.74554878     3.64988483     0.69185018    -1.89973124    -0.29490616
Ti      1.92783125     2.72292922     3.67586283    -0.30397470     0.56504949    -0.41430849
Ti      1.98145823    -1.00777875     3.62421984    -0.62640041    -0.38912761    -1.19577579
O       3.93215501     4.65740899     0.70601998    -0.67065168    -0.63677019     1.01847836
O       3.93629302     0.75302399     0.77438402    -0.59267652     3.35938715    -0.22508808
O      -0.06662701     4.85187200     0.85760000     0.40726958    -0.52609135    -0.70679446
O      -0.05281099     0.94186698     0.88039298     0.39257649     2.13831222    -0.87239954
O       5.37122524     4.92535821     4.06795084     1.16932144    -1.37837046    -0.13011818
O       5.49845924     1.07367122     4.18999483     0.44529801    -0.32731235    -0.89770280
O       2.13251224     4.67648123     4.08775281    -0.78777267     0.15745802    -0.99728578
O       2.11911321     0.84202023     3.96863580    -1.02820459     0.74921511     1.80180431
O       3.78003121     2.77284524     3.24668579     0.85954222     0.09934361    -1.36998017
O       3.78876523    -0.75623276     3.12107980     0.64295395    -0.70481266     1.05439334
O      -0.02938378     2.84326121     3.22439880    -0.62558177     0.21283651     0.45606116
O      -0.03265479    -0.63852776     3.24174782    -0.10957686    -1.02841465     0.43529975
O       5.67735502     6.75151101     1.73083501     0.60596527    -0.47380949    -0.41423830
O       5.68478599     2.66883598     1.54059098    -0.53300582     0.55007436     1.35611807
O       1.94401502     6.87039100     1.72124600    -0.87681052    -1.43181626    -1.33205305
O       1.86458202     2.79601601     1.61532297     0.83552759    -0.11797974    -0.42984233
