# total energy = -18968.14431598 eV

CRYSTAL
PRIMVEC
        7.60600008     0.00000000     0.00000000
        0.00000000     7.60600008     0.00000000
       -1.89786986    -1.89786986     4.85670466
PRIMCOORD
22 1
Ti      5.37744302     4.86231399     0.41894598   -13.22844303     7.05824130    -6.58826815
Ti      5.51518023     3.46943523     2.80278080   -12.22795134     6.76632893    -6.44348876
Ti     -0.38419877     4.26036323     4.84058079    -4.07835682     6.92446058    -2.18594321
Ti      0.19662200     3.27393598     1.11300898    18.11529074    -8.23496777    11.94453056
Ti     -1.76567678     2.75091121     4.69124681   -33.86976849    60.53436582    55.34818862
Ti      5.53597420     1.84232425     3.64156579   -35.34617180   -53.33889904   -46.49866089
Ti     -0.56884379     2.14874322     4.23485980    70.92844809   -15.76133334   -13.27328848
Ti     -0.77322877     0.08573725     4.29673184    15.05161836   -15.71679693   -11.95352634
O       4.23552301     4.25375402     1.72367101    -1.35193694     0.63026195    -3.78264180
O       4.25641700     7.23114701     0.65296297     1.06087895    -1.62144316    -0.10098706
O       1.21738200     4.96280698     1.26702999    -2.32935451    -0.90395418     8.28753914
O       1.46264100     0.01945499     0.25516202     0.26957744    13.58188011     2.36238985
O       6.35666498     4.53595498     1.84878899    10.16457678    22.47773914    10.62974685
O       6.12551301     1.66950501     2.05375702     0.24972440    -2.75436599    -3.11120130
O       2.71551100     5.22006898     0.09065701    14.74068882    -5.46236443    -2.95769893
O       1.83731902     2.61686998     0.70339600     7.41116339     2.10997556     4.59962710
O       3.87201724     1.80414125     3.29144180    -4.43419892     2.48291319     2.16496094
O       0.53166899     2.25812400     2.25959601     1.73284396    -2.94924668     8.07257349
O       4.71985921     4.58843820     3.89474980     0.68535840    -1.03922589     3.67658581
O       6.33056998     3.60988501     1.16999402   -19.59453821   -13.84082372   -11.58794773
O       0.82388622    -0.42733677     3.29332080    -0.88569523    -0.10987253    -0.49222348
O       5.36438223    -0.24272376     4.48112582   -13.06375404    -0.83287344     1.88973350
