# total energy = -19936.95767947 eV

CRYSTAL
PRIMVEC
        5.99478606     0.00000000     0.00000000
        0.95171894     6.30888375     0.00000000
        0.00000000     0.00000000    10.75981909
PRIMCOORD
24 1
Ti      2.73680936     3.73863861     3.99181617    -0.01039755    -1.55772708     0.79139922
Ti      4.20969557     2.57024497     6.76800316     0.01039755     1.55772708    -0.79139922
Ti      5.55784722     2.57024710     1.38805046    -0.05097034    -0.02306460    -0.30798536
Ti      1.38865772     3.73863672     9.37176899     0.05097034     0.02306460     0.30798536
Ti      2.26095002     0.58419684     1.38809361    -0.01039755    -1.55772708    -0.79139922
Ti      4.68555492     5.72468691     9.37172584     0.01039755     1.55772708     0.79139922
Ti      0.91279835     0.58419453     6.76796001     0.05097034     0.02306460    -0.30798536
Ti      6.03370659     5.72468923     3.99185932    -0.05097034    -0.02306460     0.30798536
O       2.23250403     2.22146514     5.49065337     1.60037939     1.72360495    -0.40949975
O       4.71400089     4.08741843     5.26916590    -1.60037939    -1.72360495     0.40949975
O       1.43516069     2.22149064     0.11077836    -0.93944211     0.53769989     0.57305926
O       5.51134430     4.08739299    10.64904066     0.93944211    -0.53769989    -0.57305926
O       4.23814154     0.93297649     0.11074346    -1.60037939    -1.72360495    -0.40949975
O       2.70836338     5.37590709    10.64907556     1.60037939     1.72360495     0.40949975
O       5.03548495     0.93295104     5.49068833     0.93944211    -0.53769989     0.57305926
O       1.91101992     5.37593260     5.26913100    -0.93944211     0.53769989    -0.57305926
O       0.79669384     3.83742072     2.90649562     0.39989025     0.76656389     1.03543556
O       6.14981108     2.47146279     7.85332371    -0.39989025    -0.76656389    -1.03543556
O       3.58802997     2.47140412     2.47344827     0.63902787     1.08828795     0.29267161
O       3.35847495     3.83747940     8.28637088    -0.63902787    -1.08828795    -0.29267161
O       0.32083449     0.68297877     2.47341386     0.39989025     0.76656389    -1.03543556
O       6.62567043     5.62590474     8.28640523    -0.39989025    -0.76656389     1.03543556
O       2.88261560     0.68303745     7.85335800    -0.63902787    -1.08828795     0.29267161
O       4.06388932     5.62584606     2.90646127     0.63902787     1.08828795    -0.29267161
