# total energy = -19517.50473491 eV

CRYSTAL
PRIMVEC
        5.17600016     0.00000000     0.00000000
        0.00000000     5.50899976     0.00000000
        0.00000000     0.00000000     9.26300011
PRIMCOORD
23 1
Ti      1.89035698     3.18589100     3.46601198    -0.15846460    -0.15560116     1.68314091
Ti      3.38120497     2.21862198     5.90529801     1.35586970     1.52086568    -2.20613203
Ti      4.37702797     2.14756802     1.42180598     0.05836046    -0.24236256    -0.45853122
Ti      0.79886598     3.34274898     7.80820099    -1.13140408     1.01798394    -0.34299763
Ti      2.03607900     0.20801899     1.29416202     0.14755155    -0.20007509    -0.96177600
Ti      3.25280800     5.21452702     7.86287701    -1.17113972    -0.52561081     1.30663305
Ti      0.84892101     0.51781402     5.92651299    -1.31464744    -0.66497237    -2.48644871
Ti      4.49626701     4.93953799     3.41727899     0.78075253    -0.06092437     2.22197106
O       1.73892201     2.02394201     4.96063698    -1.19641882    -1.19143191    -1.73497334
O       3.56906501     3.52748100     4.44862798     0.47197347     0.08602169     0.28491433
O       4.74053798     3.11497198     9.18456598    -0.32261212    -0.24053476     0.57978064
O       3.58526699     0.76307799     0.14971700    -1.22577620    -0.57309576    -0.25019363
O       1.71637101     4.51203501     9.00192501     1.34691917     1.06882752     1.26349070
O       4.24237099     0.75532602     4.85743598     0.23059461    -0.22403547    -0.95521866
O       0.94867500     4.62332702     4.54697399    -0.01793602     0.79381220    -0.08448468
O       0.20714199     3.38000099     2.55958199    -0.09395097    -0.67526527    -0.82706017
O       5.09270898     1.88155300     6.87392998    -0.86632042     1.46691003     0.52795386
O       2.65369802     1.85368902     2.19809598    -0.06367725     0.63060802     0.09060160
O       2.40152199     3.68521799     6.78944202     0.74463803     0.48469632     0.97825729
O       0.24951797     0.61930598     1.85076700     0.32666392    -0.01492860     0.70636175
O       4.92275799     4.90083302     7.21350799     1.36374705    -1.31828196    -0.52946567
O       2.32753697     1.07833798     6.97286300     0.58563992    -1.51692854     2.17262437
O       2.82771600     4.55729300     2.44997002     0.14963672     0.53432274    -0.97844807
