# total energy = -19068.93648308 eV

CRYSTAL
PRIMVEC
        5.17600016     0.00000000     0.00000000
        0.00000000     5.50899976     0.00000000
        0.00000000     0.00000000     9.26300011
PRIMCOORD
22 1
Ti      1.70438901     3.40668301     3.15229798     0.15225102    -0.87809196     1.40293196
Ti      3.59231399     2.50533302     5.95436502    -3.50773086    -1.56372573     2.74220749
Ti      4.47663898     2.15291801     1.59655401     2.00858844    -0.20494142    -1.44705853
Ti      0.73033901     2.32636903     7.72930399     3.63215327     0.99295552     0.37583526
Ti      1.89298000     0.51974498     1.32267700     0.38812025     0.32628057    -3.70871690
Ti      3.47600200     5.45327703     7.89399401    -1.41756771     2.78281937     1.25069483
Ti      0.71326399     5.19531100     6.31607302     2.47709812     1.62977250     0.91516883
Ti      4.54761101     5.03183503     3.57112701    -1.72732791     0.98422123     1.28825866
O       3.37421301     3.59697599     4.62493201     0.68988508     1.04223613    -2.93296079
O       1.04539998     2.17157902     0.22501400    -0.49531421     1.05560870     2.82899691
O       4.76011299     4.16275802     7.37839301    -0.32160527     0.19842445    -0.71563778
O       3.73476401     0.54867299     0.41796801    -0.58500640    -1.05763191    -1.43346793
O       1.59019399     0.54470998     8.05020602     0.04320586    -3.35638308     1.70245762
O       4.26341198     0.83256600     5.45139898     0.48935927    -0.48265563    -0.43830717
O       0.86708799     4.51800598     4.57225199     0.34653007    -0.70962114    -1.07524140
O       0.05383198     3.95969900     2.28043401    -0.08152457    -4.60317779    -1.37507533
O       4.17606799     2.06652098     7.90651000    -2.66027900    -2.18996544    -1.57316399
O       2.81289300     1.63706301     2.33302999     0.18057353     3.02876630     2.94880317
O       1.99673499     3.77768801     6.75207797     0.81693825     1.47499744     1.66504882
O       0.28989198     0.59718902     2.18861302    -1.00954660     1.83787613     1.79872387
O       1.81486402     1.57612401     6.29982098     0.22750543    -0.58613538    -3.76087483
O       2.71287501     4.56597600     2.32217900     0.35369394     0.27837087    -0.45862172
