# total energy = -19517.12147954 eV

CRYSTAL
PRIMVEC
        5.93400000     0.00000000     0.00000000
        0.00000000     9.29699974     0.00000000
        0.00000000     0.00000000     4.64899994
PRIMCOORD
23 1
Ti      4.37888697     7.02486101     2.16788002    -0.08605537     1.34773370     0.27286382
Ti      4.47785503     2.34081901     2.26011699     0.77968784    -0.10225692     0.24615674
Ti      1.33894201     6.95616402     2.33549299    -0.72075042     0.47910057     0.06887602
Ti      1.55805398     2.30731902     2.45931899    -0.92145903    -0.11260870    -0.17485051
Ti      2.98981299     4.58665302     0.17545602    -0.73522830    -0.99617943    -0.36507570
Ti      2.98011799     0.16371199     0.00264102    -0.37698403    -1.22548001     0.57565067
Ti      5.91574900     4.59550102     0.09513400     0.50346435    -0.78413430    -1.40038811
Ti      0.02504898     9.25676799     4.46867301    -0.41096040    -0.46787744     0.24029102
O       4.44828502     5.51953700     0.85406298    -0.54783390     0.92664341     0.82836141
O       4.42758700     0.83539000     0.93703199     1.44192661     1.22273458    -0.11654686
O       1.45766599     5.44371802     0.95559198     0.65607944     1.64255089     0.14296624
O       1.61800400     0.96260602     0.97142899    -0.88871576    -0.25186150    -1.03062554
O       4.49421100     8.31842702     3.66516302     0.11962088     0.63739522     0.14815370
O       4.48758099     3.79411600     3.66406302    -0.68047304    -0.30115677     0.78522728
O       1.56823303     8.44384499     3.65366299    -0.68109216    -0.89591743    -0.18404015
O       1.46272598     3.56428501     3.89052098     0.17925018     1.08161388    -0.15589273
O       3.07373299     1.51064002     3.31061702     0.17854467     0.11185820    -0.61337442
O       5.79575901     6.09671402     3.26849498     1.37000126     0.01187413    -0.61422803
O       0.10346198     1.24364401     3.02894200    -1.28470051     0.37688633     1.24346077
O       2.96768402     7.96959899     1.22055601     0.14270913    -2.32885983     1.99741648
O       2.89576999     3.27789799     1.49397401     1.42008739    -0.05309381    -0.40755600
O       5.87700301     7.85050098     1.39280098     0.86928670     0.22477466    -0.85822478
O       0.02841200     3.34932400     1.57592599    -0.32640527    -0.54374018    -0.62862159
