# total energy = -19936.42243539 eV

CRYSTAL
PRIMVEC
        5.96637226     0.00000000     0.00000000
        1.86311760     6.07055191     0.00000000
        0.00000000     0.00000000    10.80342036
PRIMCOORD
24 1
Ti      3.26660471     3.59740347     4.00799190     0.13357837    -2.26589297     0.85871252
Ti      4.56288504     2.47314858     6.79542852    -0.13357837     2.26589297    -0.85871252
Ti      5.90464710     2.47315067     1.39367515    -0.65099276    -0.70419893     0.12824667
Ti      1.92484275     3.59740161     9.40974539     0.65099276     0.70419893    -0.12824667
Ti      2.33504605     0.56212762     1.39371846     0.13357837    -2.26589297    -0.85871252
Ti      5.49444373     5.50842461     9.40970208    -0.13357837     2.26589297     0.85871252
Ti      0.99328397     0.56212535     6.79538520     0.65099276     0.70419893     0.12824667
Ti      6.83620581     5.50842688     4.00803521    -0.65099276    -0.70419893    -0.12824667
O       2.54442984     2.13754457     5.51290272     1.72279634     2.04563754    -0.75347235
O       5.28505993     3.93300754     5.29051770    -1.72279634    -2.04563754     0.75347235
O       1.75086941     2.13756906     0.11122729    -0.44799638    -0.26071073     1.13103718
O       6.07862042     3.93298310    10.69219283     0.44799638     0.26071073    -1.13103718
O       4.35350124     0.89773151     0.11119224    -1.72279634    -2.04563754    -0.75347235
O       3.47598853     5.17282060    10.69222788     1.72279634     2.04563754     0.75347235
O       5.14706173     0.89770707     5.51293777     0.44799638     0.26071073     1.13103718
O       2.68242798     5.17284511     5.29048265    -0.44799638    -0.26071073    -1.13103718
O       1.35002585     3.69245384     2.91827336     0.47433863     1.78610643     1.76300712
O       6.47946392     2.37809827     7.88514706    -0.47433863    -1.78610643    -1.76300712
O       3.92981654     2.37804166     2.48347120     0.88513267     1.55891493     0.73352932
O       3.89967322     3.69251045     8.31994904    -0.88513267    -1.55891493    -0.73352932
O       0.41846710     0.65717782     2.48343670     0.47433863     1.78610643    -1.76300712
O       7.41102261     5.41337430     8.31998354    -0.47433863    -1.78610643     1.76300712
O       2.96811453     0.65723441     7.88518150    -0.88513267    -1.55891493     0.73352932
O       4.86137523     5.41331770     2.91823886     0.88513267     1.55891493    -0.73352932
