# total energy = -4980.19610053 eV

CRYSTAL
PRIMVEC
        2.92050511     0.00000000     0.00000000
        2.15340906     4.03764131     0.00000000
       -0.00001385    -0.00006238     4.73532338
PRIMCOORD
6 1
Ti      2.53694993     2.01878937     2.36766179     0.00000000     0.00000000     0.00000000
Ti      0.00000000     0.00000000     0.00000000     0.00000000     0.00000000     0.00000000
O       1.87991745     0.78686463     0.92284484    -7.84142146     3.36007621     4.62421097
O       3.19398243     3.25071420     3.81247880     7.84142146    -3.36007621    -4.62421097
O       0.65702660     1.23189966     3.29050755     7.84104505    -3.36003096     4.62386850
O       1.49636828     2.80567924     1.44481604    -7.84104505     3.36003096    -4.62386850
