# total energy = -4983.95331214 eV

CRYSTAL
PRIMVEC
        4.23380886     0.00000000     0.00000000
        1.99237330     3.73571762     0.00000000
       -3.11313086    -1.86788268     5.59141979
PRIMCOORD
6 1
Ti      1.49418008     2.80193208     1.39785458     0.00071245    -0.00071245     0.00000000
Ti      1.61887107    -0.93409728     4.19356453    -0.00071245     0.00071245     0.00000000
O       0.49813720     0.93392465     0.91079648    -0.00048568    -0.00066540    -2.14306722
O       2.61491377     0.93391014     4.68062269     0.00048568     0.00066540     2.14306722
O      -0.49809696    -0.93390046     3.70650638    -0.00066540    -0.00048568    -2.14306722
O       3.61114785     2.80173515     1.88491273     0.00066540     0.00048568     2.14306722
