# total energy = -19073.62599018 eV

CRYSTAL
PRIMVEC
        5.93400000     0.00000000     0.00000000
        0.00000000     9.29699974     0.00000000
        0.00000000     0.00000000     4.64899994
PRIMCOORD
22 1
Ti      4.39274999     6.89141003     2.35760101    -0.21059528    -1.02330304     0.79983964
Ti      4.38134998     2.46498600     2.09401201     0.90286481    -0.43588802     1.04693585
Ti      1.52099401     7.24435501     2.57110398     0.52663026    -0.65723746     0.55524639
Ti      1.60489501     2.36164298     2.17940502    -0.47639808     0.39349026     0.77423530
Ti      2.94217000     4.59103101     4.48434300     0.27246273     0.44896723     0.36818391
Ti      3.03993603     0.00726798     0.09163699     1.21281886     0.14021182    -0.56219994
Ti      5.76291800     4.62645001     4.40099801     0.64322160    -0.05240604     0.80233849
Ti      0.05102301     9.08505701     0.38038499    -0.94892331     1.17194422    -1.25765224
O       4.31277501     5.41100402     0.91395600     0.86021559     0.50508543     0.15859059
O       4.56096501     0.77260000     1.17087499     0.14170203     0.23292661    -1.07436696
O       1.48341999     0.61894900     1.28177599    -0.36101773     1.41202235    -0.22722415
O       4.33172903     8.18908499     3.76868401     0.56537500     2.09767437     1.48179621
O       4.35339301     4.07665300     3.37058698     0.36371430    -1.70805517    -0.66580232
O       1.52975898     8.43166900     3.92825402    -0.36372073     0.68357997    -0.47153587
O       1.62569199     3.92427598     3.38492498    -1.92362502    -1.13792980     0.35391171
O       2.82124601     6.12982898     3.38774502    -0.09085022     0.51177622    -0.73745257
O       3.12511298     1.54698100     3.19403599    -0.60963630    -0.62174003     1.58980366
O       0.06034700     6.24298401     3.28323299     0.08254196    -1.97790797     1.11603865
O       3.02886802     7.90013998     1.61300698    -0.48591400     0.28523546    -1.76555817
O       2.97884198     3.01814800     1.11840501    -0.82772737     1.10416658    -1.49245420
O       0.03005102     7.70200099     1.41860398    -0.26566807    -1.44372870     0.13127543
O       5.91962199     3.18904902     1.30557002     0.99252949     0.07111597    -0.92394940
