# total energy = -19517.87494909 eV

CRYSTAL
PRIMVEC
        5.17600016     0.00000000     0.00000000
        0.00000000     5.50899976     0.00000000
        0.00000000     0.00000000     9.26300011
PRIMCOORD
23 1
Ti      1.81760997     3.26239801     3.44544699    -0.84267140    -0.19397001     2.01576825
Ti      3.41675500     2.26734401     5.77640498    -0.11597351    -0.03516473    -1.30739796
Ti      4.33716198     1.95283101     1.56370401     1.52417906     0.78946677    -0.92659507
Ti      1.07692698     3.33949099     7.88495201    -1.81002953    -0.21042842    -0.32181456
Ti      1.89630001     0.37652702     1.20466301     0.71368271    -0.22939519     0.67902525
Ti      3.29728699     5.33490299     7.90186203     0.08638087    -1.84019989    -0.67708947
Ti      0.64444899     0.49109803     5.82235397     0.08328089     0.26189164    -1.65192848
Ti      4.35415799     4.86968702     3.39017903     0.88924464     0.67815108     1.84565449
O       1.56852100     2.01259200     4.86749803     0.76875962     0.62789911    -0.85706984
O       3.46381499     3.75940002     4.57703300    -0.41496386    -0.99945168     0.25525356
O       0.48417702     2.53626798     0.14543802    -0.23547740    -0.98427162     0.26286146
O       3.42681799     0.87730502     0.13421200     0.80863487     1.21342410     0.33428519
O       1.60462201     4.75948199     9.01758998     0.72457751     0.50576498    -0.10819283
O       4.17445400     0.85141799     4.69685699     0.65778922    -0.35350830    -0.32974976
O       0.98025402     4.73467602     4.43452700    -0.33845655     0.53821514     0.34698233
O       5.17055302     3.26170299     2.75681498     0.54055613    -0.65018158    -1.32089188
O       5.05309001     1.96656898     6.75970199    -0.44554432     0.85187801     1.03615881
O       2.65253102     1.89922101     2.40676301     0.02089845     0.00110506    -0.98307657
O       2.81809900     3.52295097     7.07017600    -1.12517532    -0.05897959     1.76857947
O       0.23842499     0.59861398     2.13579002    -0.47734296    -0.47130241    -0.12922781
O       5.05802898     4.74001198     7.13884003     0.03590830     0.23775205     0.36191324
O       2.41266900     0.79487000     6.70097601    -0.23863703    -0.08050847     0.79676742
O       2.83844099     4.60362802     2.28965698    -0.80961986     0.40181395    -1.09021474
