# total energy = -19919.33276883 eV

CRYSTAL
PRIMVEC
        7.23182012     0.00000000     0.00000000
        0.00003055     5.68897137     0.00000000
        0.00000000     0.00000000    11.51417170
PRIMCOORD
24 1
Ti      2.62120509     3.37127921     4.27167558     0.49709136    -0.74374843     1.13030571
Ti      4.61064565     2.31769235     7.24249618    -0.49709136     0.74374843    -1.13030571
Ti      6.23699025     2.31769433     1.48536430     0.49707824     0.74397803    -1.13102844
Ti      0.99486049     3.37127749    10.02880759    -0.49707824    -0.74397803     1.13102844
Ti      2.62118994     0.52679365     1.48541046     0.49709136    -0.74374843    -1.13030571
Ti      4.61066080     5.16217810    10.02876143    -0.49709136     0.74374843     1.13030571
Ti      0.99484534     0.52679148     7.24245002    -0.49707824    -0.74397803    -1.13102844
Ti      6.23700540     5.16218027     4.27172174     0.49707824     0.74397803     1.13102844
O       2.28892753     2.00318357     5.87559369     0.82551957     1.40967905    -1.18073380
O       4.94292328     3.68578799     5.63857808    -0.82551957    -1.40967905     1.18073380
O       1.32704640     2.00320651     0.11854487    -0.82501846     1.40977264    -1.18122565
O       5.90480447     3.68576511    11.39562657     0.82501846    -1.40977264     1.18122565
O       4.94290813     0.84130225     0.11850752    -0.82551957    -1.40967905    -1.18073380
O       2.28894268     4.84766931    11.39566392     0.82551957     1.40967905     1.18073380
O       5.90478932     0.84127936     5.87563104     0.82501846    -1.40977264    -1.18122565
O       1.32706142     4.84769226     5.63854072    -0.82501846     1.40977264     1.18122565
O       0.26276735     3.46035487     3.11026503    -1.39085214     0.29105953     0.05211345
O       6.96908346     2.22861669     8.40390673     1.39085214    -0.29105953    -0.05211345
O       3.87868520     2.22856363     2.64685747    -1.39137099    -0.29084818    -0.05220190
O       3.35316560     3.46040799     8.86731410     1.39137099     0.29084818     0.05220190
O       0.26275220     0.61586918     2.64682069    -1.39085214     0.29105953    -0.05211345
O       6.96909860     5.07310244     8.86735088     1.39085214    -0.29105953     0.05211345
O       3.35315045     0.61592224     8.40394344     1.39137099     0.29084818    -0.05220190
O       3.87870035     5.07304931     3.11022825    -1.39137099    -0.29084818     0.05220190
