# total energy = -4986.71793311 eV

CRYSTAL
PRIMVEC
        3.57352569     0.00000000     0.00000000
        0.00000000     4.58114651     0.00000000
        0.00000000    -0.00006727     5.14157866
PRIMCOORD
6 1
Ti      1.78676285     2.29053956     2.57078945     0.00000000     0.00000000     0.00000000
Ti      0.00000000     0.00000000     0.00000000     0.00000000     0.00000000     0.00000000
O       1.78676285     0.89278486     1.00201802    -0.00000000     0.18692493     0.15636221
O       1.78676285     3.68829427     4.13956088    -0.00000000    -0.18692493    -0.15636221
O       0.00000000     1.39772749     3.57280839     0.00000000    -0.18702288     0.15690189
O       0.00000000     3.18335164     1.56877051     0.00000000     0.18702288    -0.15690189
