# total energy = -19517.66918018 eV

CRYSTAL
PRIMVEC
        7.60600008     0.00000000     0.00000000
        0.00000000     7.60600008     0.00000000
       -1.89786986    -1.89786986     4.85670466
PRIMCOORD
23 1
Ti      3.77443198     6.77246903     1.30796497     0.52735711     0.03613558    -0.09107879
Ti      3.74580302     2.97603703     1.20061899     0.61406785     0.10858030    -0.60269971
Ti     -0.03305802     6.56057598     1.24554402    -0.66404832     1.02193855    -1.03574281
Ti     -0.05526701     2.81489599     1.07997203    -0.17302142    -1.12317809     0.32387916
Ti      5.69859921     2.68681520     3.59014479    -0.55876083    -0.45406316    -0.67997708
Ti      5.73869825    -1.22327878     3.56163182    -1.07020975     1.07060261     1.87263077
Ti      2.09426125     3.01370222     3.69290482     0.23620502    -1.69587842    -1.12084996
Ti      1.88089222    -0.93982075     3.67023381     0.36497671     0.78552681     0.73076744
O       4.17118099     4.84175900     0.67882302    -0.59457168    -0.19703168     2.94731810
O       3.68752600     1.02557700     0.81726399    -0.52546632    -0.18359535    -0.23137597
O      -0.23678602     4.57817200     0.67290602     0.29553839     2.15046351     1.40825286
O      -0.01727801     0.90455199     0.62658899     0.67586254    -0.89578347     1.31373342
O       5.52609520     4.60476522     4.10274080     1.09089402     0.16477538    -0.31165484
O       5.77025621     0.86903621     3.99908683     0.53918342     0.24411682    -0.48465081
O       2.04949624     4.76933120     4.18969981    -1.01318600     2.40287909    -0.39070961
O       1.73623421     1.10832725     4.05970684    -0.20886956    -1.08265878    -0.42060409
O       3.89171121     2.95073124     3.19973083    -0.68414587    -0.55559477    -0.40925935
O       3.74964321    -0.90912980     3.37906181    -0.55132777    -0.07748177    -1.26152123
O      -0.04369178    -1.14073877     3.23866082     1.05857730    -0.33313436    -0.17013459
O       5.66701098    -0.64484301     1.76840898     0.06995846    -0.88296652    -1.25412005
O       5.66147001     2.60166402     1.57653301     1.81585617     0.64000052     0.42036395
O       1.82984900     6.63977799     1.63730399     0.58336861    -0.23822925     0.10983371
O       1.98009702     3.31313299     1.74057198    -1.82823835    -0.90542434    -0.66240024
