# total energy = -19068.55752792 eV

CRYSTAL
PRIMVEC
        5.93400000     0.00000000     0.00000000
        0.00000000     9.29699974     0.00000000
        0.00000000     0.00000000     4.64899994
PRIMCOORD
22 1
Ti      4.52183802     6.86371601     2.53707100     2.12504275    -2.39325673    -1.45595404
Ti      4.21124002     2.63836802     2.18731400     0.35126887    -1.94699019    -0.14021439
Ti      1.55143398     7.65408198     2.36985401    -3.41720743    -3.13108159    -3.86179375
Ti      1.48689197     2.23574001     2.60572000     0.09360233    -1.23951927    -0.90420461
Ti      3.05500101     4.74187098     4.26627298    -1.82625217     0.49298427     0.86298518
Ti      3.21938098     9.05505901     0.05399301     0.82608701     2.53993513    -0.29578676
Ti      5.73376902     4.22941202     4.55262798    -0.42516523    -0.50922414    -0.40902641
Ti      0.16176202     0.14089000     0.16307301    -1.43015661     0.14186067     2.73981328
O       4.52240302     5.45836401     0.57184598    -1.27534040     0.56210455     1.67724948
O       4.57471399     0.79308599     1.04110099    -2.09518889    -0.56220560    -1.42633029
O       1.48127597     0.36193401     1.43172900    -0.17733908     1.20313686    -0.55764806
O       4.59871302     8.04532298     3.87744798    -1.47120840     2.41843967     1.33059163
O       4.32953199     4.50407602     3.06298201     1.14691581    -2.57673895    -1.66577799
O       1.10797799     8.15849098     3.87421698     1.71447753     2.91169519     4.21207121
O       1.35163199     3.77504498     3.60983701     1.23730143    -0.00473520     0.85662530
O       2.55061000     6.19393002     3.08031299     2.75693915    -0.53647064     0.76929132
O       3.23810502     1.41971800     3.41657201    -0.83809689     0.60208059    -0.28220927
O       0.25849901     6.10166299     2.94028697    -1.76613975    -0.39550420    -0.13016369
O       3.13746397     8.07062702     1.53071298     1.82668720    -2.02857904     0.15156093
O       2.54145799     2.98842501     1.30531999     1.39624735     1.47425207    -0.60099430
O       5.76914399     7.85018898     1.46987898     0.59384895     0.17955923    -0.50694691
O       5.90044000     2.57401202     1.39952698     0.65367571     2.79825731    -0.36313760
