# total energy = -39037.63225643 eV

CRYSTAL
PRIMVEC
        7.60600008     0.00000000     0.00000000
        0.00000000     7.60600008     0.00000000
       -3.79573973    -3.79573973     9.71340985
PRIMCOORD
46 1
Ti      1.87434645     4.76563945     6.14473061     0.37359711     0.61875189     0.48150172
Ti      3.79945000     6.67851202     1.22284602     0.05624624     1.00516724     0.42959833
Ti      1.82618646     0.85570046     6.11035562     2.18443525    -0.91686190    -0.52587152
Ti      3.70969397     2.77955600     1.22338901     1.12277777     0.09794467    -0.58818969
Ti     -1.96124852     4.61477546     6.00780160     0.25403820     1.21205010     1.16657833
Ti      0.00872502     6.65905798     1.18234798     0.11814429     0.45532043    -0.28456106
Ti     -1.84774852     0.97601743     6.02886460    -0.96063417    -0.03343207     0.26039705
Ti      0.02173701     2.93594402     1.13873600    -1.07850053    -0.48214836     0.89013013
Ti      3.85091942     0.98836943     8.44822960     0.29873813     0.66922189    -0.61844181
Ti      5.62592698     2.87922500     3.48257401     1.19171267    -0.41804919     0.03494310
Ti      3.88738947    -2.78742254     8.50089263     0.01525667    -0.61878866     0.93027561
Ti      5.61783602    -0.94655602     3.70340301    -0.27998938     0.54107626    -0.19716743
Ti      0.07854647     0.96461546     8.36657665    -0.65043586     0.05329796     3.61648831
Ti      1.91936298     2.76396898     3.52837202    -1.45239795    -0.37999608     1.12713296
Ti      0.01806045    -2.82053956     8.50979863    -0.09908752    -0.28970147     0.50101332
Ti      1.86320701    -1.04831701     3.65649198     0.42747897     0.33882987     1.67056744
O       1.72821246    -1.02637256     5.78993965     0.14318093     0.50000622    -1.10340579
O       3.79557600     1.01300602     0.99668799    -0.15736931    -1.26232573    -1.29483914
O      -1.96033755     2.89320645     5.56701764     0.37336803    -1.56960455     0.35989081
O      -0.17026701     4.78753701     0.67786600     0.35923441     0.36250691     1.01248820
O      -1.65676957    -0.98470054     5.65188661    -0.51579280     0.90618487    -0.00538106
O       0.12931700     0.96891402     0.86554401    -0.53162745    -0.11244852    -0.45618638
O       3.82046146     2.84334943     8.82738261    -0.40900533     0.54365482     1.05824177
O       5.50118598     4.69686498     4.05352001     0.12167107     1.27849541    -0.21874620
O       4.06172845    -0.88636253     8.92020565    -0.08023465    -0.68895820    -0.26420126
O       5.67988898     1.01406702     3.96788299     0.21804711    -1.29145634     1.01807238
O       0.16267147     2.87735944     9.02551562     0.05472338    -0.73672340    -0.03723422
O       2.01697697     4.51609999     4.24893999    -0.07315331     0.56779441    -0.35339903
O      -0.16431155    -0.91939954     8.96246061     0.21161035     0.38198328    -0.17212256
O       1.87331101     0.95130898     4.11885599    -0.26163221     0.00963367     0.20050190
O       1.92091347     0.76696543     8.16227661     0.29573765     0.11036079    -0.39792927
O       3.74185102     2.66703699     3.20570498     0.40176099     0.48436336    -0.11551097
O       2.01240245    -2.77773156     8.16002665    -1.84924658    -0.00659488     0.30894618
O       3.68501601    -0.87634700     3.31547502     1.67322622    -0.60180189    -0.06564389
O      -1.81737253     1.13793043     8.02280665    -1.30526703    -0.56222565    -0.26458153
O      -0.08284799     2.88148998     3.18746302     0.50613033     0.03520330    -0.30566160
O      -1.91712255    -3.08866955     8.12216063     1.41998738     0.66777153    -0.35575468
O       0.14364098    -1.03731399     3.18286601    -2.25699130    -0.21255421    -0.05408420
O       3.78903945     4.75247844     6.58725863     0.59914182    -0.04194911    -1.44921055
O       5.67747699     6.75027300     1.82041901     0.40878936    -0.62045885    -1.21461427
O       3.73995947     1.11656146     6.46768463     0.39736568    -0.30201989    -0.37797673
O       5.64701898     3.01340498     1.53143600    -0.38037866     0.03453147     0.06952574
O       0.03817543     4.62115046     6.60434962    -0.36823713    -0.35532633    -0.34158249
O       1.93365601     6.55580603     1.54205902    -0.05112281    -0.52203955     0.20929996
O       0.06416242     1.20490744     6.60637764    -0.45971342     0.63840644    -3.43765310
O       1.87246698     3.03302899     1.65531899    -0.00558264     0.51290827    -0.84564334
