# total energy = -19915.90076877 eV

CRYSTAL
PRIMVEC
        7.93054684     0.00000000     0.00000000
        0.00002655     4.06394445     0.00000000
        0.00000000     0.00000000    11.98179606
PRIMCOORD
24 1
Ti      2.87445765     2.40828979     4.44516088     0.19733121    -0.15539059     2.52459001
Ti      5.05611591     1.65565483     7.53663530    -0.19733121     0.15539059    -2.52459001
Ti      6.83959532     1.65565628     1.54568934     0.19717875     0.15548161    -2.52492914
Ti      1.09097830     2.40828853    10.43610702    -0.19717875    -0.15548161     2.52492914
Ti      2.87444444     0.37631763     1.54573739     0.19733121    -0.15539059    -2.52459001
Ti      5.05612918     3.68762712    10.43605897    -0.19733121     0.15539059     2.52459001
Ti      1.09096503     0.37631607     7.53658725    -0.19717875    -0.15548161    -2.52492914
Ti      6.83960853     3.68762868     4.44520893     0.19717875     0.15548161     2.52492914
O       2.51007759     1.43098398     6.11421882     1.69541922     0.91671380    -1.67642082
O       5.42049603     2.63296064     5.86757735    -1.69541922    -0.91671380     1.67642082
O       1.45526110     1.43100034     0.12335930    -1.69512843     0.91684236    -1.67710653
O       6.47531258     2.63294429    11.85843652     1.69512843    -0.91684236     1.67710653
O       5.42048276     0.60098842     0.12332044    -1.69541922    -0.91671380    -1.67642082
O       2.51009080     3.46295621    11.85847544     1.69541922     0.91671380     1.67642082
O       6.47529937     0.60097207     6.11425768     1.69512843    -0.91684236    -1.67710653
O       1.45527413     3.46297262     5.86753849    -1.69512843     0.91684236     1.67710653
O       0.28815137     2.47192142     3.23658203    -1.90093837     0.60001702     0.29342597
O       7.64242219     1.59202326     8.74521415     1.90093837    -0.60001702    -0.29342597
O       4.25343471     1.59198533     2.75435414    -1.90087589    -0.59992626    -0.29378695
O       3.67713885     2.47195936     9.22744185     1.90087589     0.59992626     0.29378695
O       0.28813816     0.43994914     2.75431588    -1.90093837     0.60001702    -0.29342597
O       7.64243547     3.62399549     9.22748011     1.90093837    -0.60001702     0.29342597
O       3.67712564     0.43998708     8.74525235     1.90087589     0.59992626    -0.29378695
O       4.25344799     3.62395755     3.23654377    -1.90087589    -0.59992626     0.29378695
