# total energy = -19960.06408313 eV

CRYSTAL
PRIMVEC
        5.21624241     0.00000000     0.00000000
        0.82811908     5.48954820     0.00000000
        0.00000000     0.00000000     9.36243998
PRIMCOORD
24 1
Ti      2.38137957     3.25310113     3.47339849     0.71097019    -1.01363389     0.62147700
Ti      3.66298186     2.23644692     5.88904171    -0.71097019     1.01363389    -0.62147700
Ti      4.83604888     2.23644877     1.20778417    -1.10274553    -0.44062425     0.54610380
Ti      1.20831256     3.25309948     8.15465613     1.10274553     0.44062425    -0.54610380
Ti      1.96732014     0.50832712     1.20782172     0.71097019    -1.01363389    -0.62147700
Ti      4.07704130     4.98122108     8.15461859    -0.71097019     1.01363389     0.62147700
Ti      0.79425311     0.50832511     5.88900416     1.10274553     0.44062425     0.54610380
Ti      5.25010833     4.98122309     3.47343603    -1.10274553    -0.44062425    -0.54610380
O       1.94256844     1.93296318     4.77758150     0.31950622     0.59850264    -0.44520262
O       4.10179299     3.55658487     4.58485864    -0.31950622    -0.59850264     0.44520262
O       1.24877619     1.93298537     0.09639156     0.12143170    -0.32374983     0.36070662
O       4.79558530     3.55656273     9.26604837    -0.12143170     0.32374983    -0.36070662
O       3.68773355     0.81181071     0.09636119    -0.31950622    -0.59850264    -0.44520262
O       2.35662788     4.67773734     9.26607874     0.31950622     0.59850264     0.44520262
O       4.38152586     0.81178857     4.77761192    -0.12143170     0.32374983     0.36070662
O       1.66283552     4.67775954     4.58482827     0.12143170    -0.32374983    -0.36070662
O       0.69322711     3.33905439     2.52902866    -0.15309305     0.10493370    -0.04455492
O       5.35113432     2.15049360     6.83341154     0.15309305    -0.10493370     0.04455492
O       3.12205205     2.15044254     2.15222122     0.58817580    -0.01627843    -0.34373965
O       2.92230937     3.33910545     7.21021881    -0.58817580     0.01627843     0.34373965
O       0.27916767     0.59428023     2.15219128    -0.15309305     0.10493370     0.04455492
O       5.76519375     4.89526776     7.21024870     0.15309305    -0.10493370    -0.04455492
O       2.50824994     0.59433129     6.83344137    -0.58817580     0.01627843    -0.34373965
O       3.53611149     4.89521670     2.52899877     0.58817580    -0.01627843     0.34373965
