# total energy = -19961.85195621 eV

CRYSTAL
PRIMVEC
        7.60600008     0.00000000     0.00000000
        0.00000000     7.60600008     0.00000000
       -1.89786986    -1.89786986     4.85670466
PRIMCOORD
24 1
Ti      3.86751802     6.69842501     1.16747302    -1.37032033     1.10445145     0.79665481
Ti      3.83925498     2.94282401     1.18205900    -0.44150717    -1.18196124     0.38124306
Ti     -0.05647798     6.57143702     1.24091102     1.65237277     0.76219122    -0.56836905
Ti      0.01594099     2.81811498     1.26177801     0.11182040    -0.80678805    -0.70545646
Ti      5.70601822     2.75787921     3.64615884    -0.60633191     0.00117911     0.18568360
Ti      5.68957822    -1.02869978     3.65282181    -0.39205018     0.10414129     0.51826363
Ti      1.91701724     2.91558625     3.66487081     0.43748416    -0.15386130    -1.05119695
Ti      1.88093625    -0.86540277     3.65789583     0.25330852     0.07961090    -1.35744296
O       3.87246398     4.79325800     0.73972502    -0.19554430     0.66573290     0.49969434
O       3.80454699     0.97241601     0.70193701     0.01646921     0.30331932     1.08335426
O      -0.02850900     4.69998601     0.77325698    -0.10056771    -0.63481409     0.56014846
O      -0.04853799     0.88298802     0.74542802    -0.04049258     0.79134728     0.35790438
O       5.67801125     4.70043523     4.07116082    -0.09556768    -0.17815309    -0.51295815
O       5.66441224     0.87311521     4.06063480     0.14934875     0.58466008     0.50522684
O       1.91413122     4.87295522     4.01163981    -0.01163759    -2.04515623    -0.00262047
O       1.94127124     1.02726322     4.09356884    -0.28803385     0.04775440    -0.41903084
O       3.80019122     2.78830822     3.15660580    -0.77897667     0.44302284     0.85405420
O       3.75685123    -0.83080278     3.17164983     0.79319925    -0.49618813    -0.25279867
O      -0.03760376     2.72695022     3.27859380     0.85086217     0.48691390    -0.68383270
O      -0.03371976    -0.98681577     3.17080981    -0.33111733     0.06885777     0.76775971
O       5.70499902     6.66832001     1.60273999    -0.92498144    -0.18544757     0.04223887
O       5.63142201     2.76897103     1.68481400     1.53472830     0.29921687    -0.59761870
O       1.84165198     6.75430999     1.64716500     0.62084914    -0.44464880    -0.54493832
O       1.91167800     2.81005899     1.61787398    -0.84331367     0.38461892     0.14403685
