# total energy = -4987.86291968 eV

CRYSTAL
PRIMVEC
        2.98500360     0.00000000     0.00000000
        1.37224017     4.47121722     0.00000000
       -0.00000914    -0.00006130     4.73177256
PRIMCOORD
6 1
Ti      2.17861737     2.23557800     2.36588628     0.00000000     0.00000000     0.00000000
Ti      0.00000000     0.00000000     0.00000000     0.00000000     0.00000000     0.00000000
O       1.75992943     0.87136253     0.92215276    -2.09514621     1.03294648     1.02044448
O       2.59730537     3.59979347     3.80961975     2.09514621    -1.03294648    -1.02044448
O       0.41868420     1.36419067     3.28804009     2.09521691    -1.03287783     1.02064323
O       0.95354702     3.10696512     1.44373247    -2.09521691     1.03287783    -1.02064323
