# total energy = -19957.92742050 eV

CRYSTAL
PRIMVEC
        5.93400000     0.00000000     0.00000000
        0.00000000     9.29699974     0.00000000
        0.00000000     0.00000000     4.64899994
PRIMCOORD
24 1
Ti      4.39044399     6.95463099     2.21266498     2.57970857    -0.84468818     0.37445303
Ti      4.47363299     2.31541601     2.34846900     0.01453702     0.46295918     0.23014596
Ti      1.52249401     6.92148798     2.38774200    -2.48643997    -1.42976992    -0.38849640
Ti      1.47298398     2.42483902     2.36051001     0.44413021    -0.07280210    -0.79932670
Ti      2.99491802     4.88975998     4.63376202    -0.77718075    -3.32695910     1.98765837
Ti      3.02899502     9.06699301     4.61877202     0.35985045     3.68222656    -1.31374601
Ti      5.91753899     4.64523601     4.46422802     0.44158019    -2.07206849     0.90463913
Ti      0.00879403     9.10108399     0.21185198     0.77058896     3.62669893     0.12321245
O       4.57002500     5.59747698     0.79940500    -0.86954844     1.42006168     1.32379620
O       4.36455098     0.76177198     0.91997100    -0.32811402     0.08030458    -0.12744989
O       1.39502802     5.54503202     0.92202500     0.77179969     1.82801235     1.06973178
O       1.35227097     1.07088298     1.00467201    -0.01557343    -2.78438774    -1.21229873
O       4.62210001     8.18351498     3.82719000    -2.50773514     1.06789910    -0.65209242
O       4.31481298     3.75614399     3.82439002     0.75806897     0.14964752    -0.89222044
O       1.34329200     8.55177001     3.70778502     2.31803805    -1.50588771    -0.52118723
O       1.57183402     3.92092402     3.76901898    -0.75570304    -0.24460919    -0.59952440
O       3.10958898     5.95007498     3.04304198    -1.52843938     1.15957181     0.40629616
O       2.88485502     1.49917899     3.13058800     1.25809447    -1.25870587     1.08182445
O       0.08083198     6.23732800     3.36097299     0.51796204    -0.73966089    -1.23116472
O       0.07547099     1.57672801     3.35557401    -2.24138547     0.18790297    -0.75187003
O       3.05141298     7.79024098     1.26026499    -1.61804441    -0.47289649     1.28957481
O       2.82103101     3.39638998     1.45133999     1.30830016     0.20930664    -0.38085148
O       5.91210498     7.72491299     1.49104702     1.57992805     1.31271089    -0.86059817
O       5.76890199     3.31106301     1.31920999     0.00557698    -0.43486601     0.93949430
