# total energy = -4977.29823433 eV

CRYSTAL
PRIMVEC
        2.73813830     0.00000000     0.00000000
        1.65009707     3.96023269     0.00000000
       -0.00001052    -0.00005700     4.38222732
PRIMCOORD
6 1
Ti      2.19411235     1.98008771     2.19111361     0.00000000     0.00000000     0.00000000
Ti      0.00000000     0.00000000     0.00000000     0.00000000     0.00000000     0.00000000
O       1.69064665     0.77177982     0.85403154   -10.38014175     4.31749650     5.86494303
O       2.69757805     3.18839560     3.52819563    10.38014175    -4.31749650    -5.86494303
O       0.50346120     1.20828489     3.04514611    10.37788741    -4.31577643     5.86195000
O       1.14662533     2.75189070     1.33708111   -10.37788741     4.31577643    -5.86195000
