# total energy = -4986.99268005 eV

CRYSTAL
PRIMVEC
        3.27977080     0.00000000     0.00000000
        1.01760568     5.03714863     0.00000000
       -0.00000678    -0.00006729     5.16505619
PRIMCOORD
6 1
Ti      2.14868480     2.51854068     2.58252821     0.00000000     0.00000000     0.00000000
Ti      0.00000000     0.00000000     0.00000000     0.00000000     0.00000000     0.00000000
O       1.83820038     0.98165301     1.00659344     0.68342570    -0.49949071    -0.68675528
O       2.45916921     4.05542834     4.15846298    -0.68342570     0.49949071     0.68675528
O       0.31048163     1.53686041     3.58912258    -0.68342493     0.49998770    -0.68641024
O       0.70711726     3.50022082     1.57593384     0.68342493    -0.49998770     0.68641024
