# total energy = -19921.29402394 eV

CRYSTAL
PRIMVEC
        7.65105620     0.00000000     0.00000000
        0.00002561     3.92072173     0.00000000
        0.00000000     0.00000000    11.55953012
PRIMCOORD
24 1
Ti      2.77315518     2.32341614     4.28850323     0.09038151     0.05043015     2.15462150
Ti      4.87792680     1.59730577     7.27102700    -0.09038151    -0.05043015    -2.15462150
Ti      6.59855231     1.59730716     1.49121571     0.09048075    -0.05026071    -2.15424406
Ti      1.05252973     2.32341492    10.06831470    -0.09048075     0.05026071     2.15424406
Ti      2.77314243     0.36305533     1.49126206     0.09038151     0.05043015    -2.15462150
Ti      4.87793961     3.55766669    10.06826834    -0.09038151    -0.05043015     2.15462150
Ti      1.05251692     0.36305383     7.27098065    -0.09048075     0.05026071    -2.15424406
Ti      6.59856506     3.55766820     4.28854958     0.09048075    -0.05026071     2.15424406
O       2.42161670     1.38055283     5.89873975     2.14747409     0.61493611    -1.09569479
O       5.22946534     2.54016908     5.66079049    -2.14747409    -0.61493611     1.09569479
O       1.40397437     1.38056861     0.11901183    -2.14697761     0.61488469    -1.09688418
O       6.24710773     2.54015330    11.44051805     2.14697761    -0.61488469     1.09688418
O       5.22945253     0.57980821     0.11897434    -2.14747409    -0.61493611    -1.09569479
O       2.42162945     3.34091370    11.44055560     2.14747409     0.61493611     1.09569479
O       6.24709499     0.57979243     5.89877724     2.14697761    -0.61488469    -1.09688418
O       1.40398694     3.34092953     5.66075299    -2.14697761     0.61488469     1.09688418
O       0.27799626     2.38480525     3.12251746    -1.51661693     0.48430011     0.42418281
O       7.37308573     1.53591672     8.43701277     1.51661693    -0.48430011    -0.42418281
O       4.10353393     1.53588012     2.65728439    -1.51522236    -0.48419933    -0.42444815
O       3.54754805     2.38484185     8.90224567     1.51522236     0.48419933     0.42444815
O       0.27798351     0.42444432     2.65724748    -1.51661693     0.48430011    -0.42418281
O       7.37309853     3.49627758     8.90228258     1.51661693    -0.48430011     0.42418281
O       3.54753531     0.42448092     8.43704962     1.51522236     0.48419933    -0.42444815
O       4.10354674     3.49624098     3.12248055    -1.51522236    -0.48419933     0.42444815
