# total energy = -19071.20478846 eV

CRYSTAL
PRIMVEC
        5.17600016     0.00000000     0.00000000
        0.00000000     5.50899976     0.00000000
        0.00000000     0.00000000     9.26300011
PRIMCOORD
22 1
Ti      1.75644502     3.45495302     3.20548997     1.83119126    -0.05390397    -0.49295753
Ti      3.66422998     2.62029497     5.97601800    -1.63475582     0.13783149    -0.16907246
Ti      4.39830699     2.35201698     1.53343999     0.65176872    -2.82435093    -0.28192568
Ti      0.99410900     2.25141398     7.86171499    -0.33756257     0.24540057     1.57002519
Ti      1.87141301     0.48691398     1.14557699    -0.34736774     0.29021261    -1.82095878
Ti      3.21105300     0.23592801     7.64743397    -0.55280693    -2.57262749     1.27776315
Ti      0.79556201     4.97110299     6.33201400     0.38630942     1.74585991     6.09230885
Ti      4.31500099     5.09347301     3.86300800     0.78086952     1.24796894    -1.83947664
O       3.63932298     3.43056700     4.15545701    -1.27159250    -0.76327494     2.43564369
O       0.91287600     2.03491402     0.43506001    -0.71785227     2.27673481    -1.22531520
O       4.99036700     3.81490198     7.51600301    -1.43998311     0.13436667    -1.47329974
O       3.56331699     0.79005100     0.11983198    -0.71801605     0.49168304     1.10635510
O       1.31177801     5.47608700     8.60287498     1.27343830     0.50287428     0.32979501
O       4.02627702     1.06926301     4.82894101    -0.01678571    -0.46168365     0.40845126
O       0.99780699     4.54948599     4.71415500     0.21661141    -1.29338056    -4.06331252
O       0.12184603     3.71654798     2.29774599     0.63753355     1.44921749     0.19123538
O       4.55425102     1.51874199     7.26192501     0.58046686    -1.74123990    -0.78661645
O       2.65041299     1.97790099     2.18798902    -0.42678451     0.89753157     0.57249233
O       2.27744902     3.47605597     7.27205400     1.71200901     2.11262226    -1.41122737
O       0.02217401     0.99936701     2.36579898     0.36333172    -1.18069112     1.07464336
O       2.01915401     1.25862100     6.55354998    -0.14693192    -1.08566465    -1.29762339
O       2.78652902     4.80427097     2.40676100    -0.82309090     0.44451356    -0.19692703
