# total energy = -19077.20312290 eV

CRYSTAL
PRIMVEC
        5.17575250     0.00001323     0.00000000
        0.00001429     5.50856584     0.00000000
        0.00000000     0.00000000     9.26345890
PRIMCOORD
22 1
Ti      1.92174460     3.42926759     3.29616925    -0.05986636     0.00169950     0.00712839
Ti      3.40213155     2.25464458     5.92193899    -0.00345454     0.03003512     0.01159774
Ti      4.47379284     2.24714586     1.13418651     0.03625128     0.01460027    -0.02351532
Ti      0.75362530     3.28743556     8.09948746    -0.01897526    -0.05519106    -0.05633058
Ti      1.81739957     0.63048526     1.23727680     0.00207180    -0.01153603    -0.03536657
Ti      3.20367710     4.98364031     8.14332250     0.00342805     0.00347716    -0.03132762
Ti      0.77745700     0.56427560     5.79705507     0.01899017    -0.00577007    -0.02588356
Ti      4.47804180     4.94656557     3.49756503    -0.04563221    -0.00378621     0.03236429
O       3.44328204     3.48722892     4.52748378     0.08503593     0.00205123     0.01293008
O       0.94459439     1.93403883     0.12093266     0.03176419     0.00797582     0.06805790
O       4.15967133     3.61209426     9.12904785    -0.03372440     0.05532965     0.03244065
O       3.55509747     0.83820556     0.07150539     0.03095095    -0.04607701     0.01026462
O       1.57878133     4.71829826     9.13648805    -0.06934448     0.01947611    -0.04846763
O       4.25747290     0.81634500     4.72940687     0.09327734    -0.03469962    -0.02922471
O       0.92895301     4.60367472     4.58315709     0.03164798     0.01657025     0.05632723
O       0.17262000     3.29888920     2.50403224    -0.01344353     0.02846906     0.01101307
O       5.09571528     2.05869091     6.78017259     0.02741106    -0.04195811     0.05369777
O       2.74140979     2.09510028     2.16396304    -0.02956178    -0.00904283     0.01887653
O       2.35985334     3.38937720     7.06650466    -0.03637238    -0.00118348     0.00689364
O       0.19771847     0.52747625     2.18937806    -0.00716052     0.00984681    -0.01483836
O       2.43492558     0.65188477     6.70220212     0.00821648     0.01097604    -0.04145880
O       2.78535536     4.87628208     2.46914015    -0.05150976     0.00873764    -0.01517928
