# total energy = -19961.98187131 eV

CRYSTAL
PRIMVEC
        5.17737054     0.00000000     0.00000000
        0.27537069     5.50340290     0.00000000
        0.00000000     0.00000000     9.26925234
PRIMCOORD
24 1
Ti      2.03973214     3.26131133     3.43882650     0.28272658    -0.27682461     0.20704433
Ti      3.41300886     2.24209137     5.83042594    -0.28272658     0.27682461    -0.20704433
Ti      4.57733390     2.24209325     1.19576268    -0.32413807    -0.21224336     0.19968403
Ti      0.87540716     3.26130966     8.07348987     0.32413807     0.21224336    -0.19968403
Ti      1.90204691     0.50961009     1.19579982     0.28272658    -0.27682461    -0.20704433
Ti      3.55069410     4.99379277     8.07345272    -0.28272658     0.27682461     0.20704433
Ti      0.73772192     0.50960805     5.83038874     0.32413807     0.21224336     0.19968403
Ti      4.71501914     4.99379481     3.43886370    -0.32413807    -0.21224336    -0.19968403
O       1.73563308     1.93784163     4.73002852     0.08106383     0.16154427    -0.14489740
O       3.71710792     3.56556106     4.53922392    -0.08106383    -0.16154427     0.14489740
O       1.04700885     1.93786384     0.09543214     0.05961156    -0.14171694     0.13227328
O       4.40573221     3.56553890     9.17382003    -0.05961156     0.14171694    -0.13227328
O       3.57942269     0.81385966     0.09540209    -0.08106383    -0.16154427    -0.14489740
O       1.87331832     4.68954304     9.17385009     0.08106383     0.16154427     0.14489740
O       4.26804697     0.81383750     4.73005863    -0.05961156     0.14171694     0.13227328
O       1.18469398     4.68956530     4.53919381     0.05961156    -0.14171694    -0.13227328
O       0.35560190     3.34748150     2.50385635    -0.11275397     0.01062303    -0.06389862
O       5.09713916     2.15592120     6.76539615     0.11275397    -0.01062303     0.06389862
O       2.88467335     2.15586992     2.13079935     0.15494579    -0.01562871    -0.10226824
O       2.56806771     3.34753277     7.13845293    -0.15494579     0.01562871     0.10226824
O       0.21791666     0.59578010     2.13076977    -0.11275397     0.01062303     0.06389862
O       5.23482440     4.90762260     7.13848251     0.11275397    -0.01062303    -0.06389862
O       2.43038247     0.59583137     6.76542568    -0.15494579     0.01562871    -0.10226824
O       3.02235859     4.90757132     2.50382671     0.15494579    -0.01562871     0.10226824
