# total energy = -19515.05294676 eV

CRYSTAL
PRIMVEC
        5.17600016     0.00000000     0.00000000
        0.00000000     5.50899976     0.00000000
        0.00000000     0.00000000     9.26300011
PRIMCOORD
23 1
Ti      2.01132700     3.18869997     3.37886199    -0.23700181    -0.88263742     2.81835460
Ti      3.33335603     2.27635199     5.84672201     0.14129040     0.29660180    -0.62554757
Ti      4.37282102     2.12724301     1.59925398    -0.73681596    -1.22099009    -1.99668680
Ti      0.85558002     3.41752998     7.72553900    -1.03615881    -0.74777169     0.35352990
Ti      1.95802001     0.21073801     1.42966198    -1.45007470     1.10401437    -1.51199588
Ti      3.08652902     5.30731100     7.81737798     1.10077066     0.03595123     0.14669126
Ti      0.63004298     0.58252102     5.88004001     1.48093077    -0.25970877    -2.48535522
Ti      4.53032200     4.85234498     3.46642098     1.71850311    -0.55446040     2.37302703
O       2.00579202     1.87015701     4.71030799    -2.54326908    -0.91167084    -0.03460578
O       3.64338002     3.51601399     4.46605099     0.33515036     0.46400716    -0.60986590
O       0.00631102     2.58366099     9.23100700     0.17882878     0.48251885    -0.43349021
O       3.33287903     0.68173699     0.32585200     1.05932446     1.05651682    -1.32409162
O       1.81365898     4.59868699     8.89894600    -1.14239401    -0.38849795     1.95749726
O       4.38231001     0.59612701     4.81569300    -3.05638639     1.68392587    -0.68203267
O       1.05400302     4.69642201     4.53111502     0.27528452    -0.49547825    -0.72538638
O       0.32675002     3.14546799     2.60814702    -0.30451746     1.78298177    -0.31852920
O       5.15798802     2.46548300     6.32638298     0.10412329    -0.86602217     0.99249324
O       2.70303798     1.50428301     2.54443101     0.20875926     2.26890708    -1.41073423
O       2.48392298     3.71975501     6.72378699     0.50505021     0.80558991     1.34460492
O       0.03785898     0.67169500     2.29035100     1.76875457    -1.05069404    -1.46391778
O       5.05574399     4.95221899     7.09400702    -1.60922450    -0.49162827     2.06579320
O       2.06705900     1.13085602     6.99093001     2.20888697    -0.02261337     1.94451062
O       2.88524497     4.58132098     2.37618302     1.03018537    -2.08884212    -0.37426303
