# total energy = -4988.86576697 eV

CRYSTAL
PRIMVEC
        3.96106530     0.00000000     0.00000000
        1.16216245     3.78674223     0.00000000
       -2.56164962    -1.89339754     5.11434597
PRIMCOORD
6 1
Ti      0.87150062     2.84020185     1.27858619     0.00003394    -0.00003394     0.00000000
Ti      1.69007726    -0.94685734     3.83575902    -0.00003394     0.00003394     0.00000000
O       0.29058204     0.94668031     0.83308502    -0.00047514    -0.00068777    -1.17400136
O       2.27099566     0.94666412     4.28126018     0.00047514     0.00068777     1.17400136
O      -0.29055154    -0.94665776     3.39025785    -0.00068777    -0.00047514    -1.17400136
O       2.85212922     2.84000208     1.72408742     0.00068777     0.00047514     1.17400136
