# total energy = -19075.13895088 eV

CRYSTAL
PRIMVEC
        7.60600008     0.00000000     0.00000000
        0.00000000     7.60600008     0.00000000
       -1.89786986    -1.89786986     4.85670466
PRIMCOORD
22 1
Ti      3.75868600     6.53786401     1.30099799    -0.16653453     0.01938253    -0.19577672
Ti      3.75173298     2.77806600     1.21016598    -0.47685677     0.30998954    -0.59095620
Ti     -0.05882303     6.62385801     1.18815702     0.96697400     0.87256332    -0.63829562
Ti     -0.09977499     2.91723099     1.11665200     0.06392022    -0.35795606    -0.43244171
Ti      5.64804521     3.00739824     3.52516780     0.48708128     0.24055816     0.38731935
Ti     -1.39017076    -0.77797078     3.72114680    -2.33924812    -0.63596157     0.25502242
Ti      1.82005223     2.73274625     3.61091182     0.47690947    -0.54770328     0.36395521
Ti      1.96387621    -1.14479978     3.81735583    -1.36821768     2.07856233    -2.37200990
O       3.55914400     4.62441500     0.70915699     0.30918993     0.47584375     0.14662518
O       3.82060402     0.83579800     0.84330099     0.06601516     0.86675082     1.79631603
O       0.05215301     4.82491100     0.68303400    -0.20775601    -0.20943880    -0.15323961
O       7.21032102     0.92855102     0.63589801     1.07847996     1.59438666     1.02160457
O       5.90073523     4.90090424     4.08633779     0.16792884    -0.58370851    -1.23628430
O       5.42371121     1.04304223     3.95082883     1.67411814    -0.51652248     0.04154364
O       1.89246220     4.71439324     4.28013583     0.11063667    -2.16063403    -1.74299467
O       2.06313123     0.82149423     3.98165679    -0.29181826     0.57649991     0.28045758
O       3.75503224     2.92775124     3.15608583    -0.17848425     0.31775967    -0.11972732
O       0.05014621     2.96556122     3.10794779    -0.98037203    -0.53551805     0.22135972
O       5.66548499     6.70925600     1.83333300     0.41849707    -0.83418753     1.03489049
O       5.69644397     3.34549498     1.56940298    -0.59919016    -1.43381735     0.70559093
O       1.84625900     6.49869801     1.78213499     0.48498428     0.55447814     0.89595625
O       1.82922399     2.69596499     1.43002600     0.30374304    -0.09132742     0.33108468
