# total energy = -19960.28609017 eV

CRYSTAL
PRIMVEC
        7.60600008     0.00000000     0.00000000
        0.00000000     7.60600008     0.00000000
       -1.89786986    -1.89786986     4.85670466
PRIMCOORD
24 1
Ti      3.83056002     6.65183699     1.20082399    -1.06534856    -1.98035566    -0.77158397
Ti      3.79075398     2.65202301     1.24352500    -0.26208961     1.49744729    -1.66413737
Ti     -0.08908202     6.73349703     1.20219498     1.23162932    -0.60693252     0.74869241
Ti     -0.03124802     2.85677000     1.22177100     0.37145898     0.24121559     1.36102296
Ti      5.63381124     2.89622223     3.62487480     1.72746649     0.92120861     0.81082262
Ti      5.63244120    -0.79904579     3.60188681     1.48850345    -1.09451799     0.70021835
Ti      2.02694122     2.71755521     3.64014183    -2.99976065     0.21182298     1.18370317
Ti      1.99873925    -1.02104380     3.61230583    -1.70243345     0.11836001    -0.92275281
O       3.90034902     4.67071198     0.70894098    -0.44659333    -0.28452635     0.63523678
O       3.92118099     0.82097897     0.78627902    -0.36510244     2.45157091    -0.32864573
O      -0.09587999     4.83278500     0.86211197     0.31463038    -0.35388883    -0.57343541
O      -0.03716999     0.89116698     0.88383999     0.06657540     3.04489561    -0.82411112
O       5.40701122     4.93475524     4.06668880     0.68740937    -1.73373330    -0.51261774
O       5.55329724     1.07973622     4.19355079     0.01348724    -1.04225027    -1.05849168
O       2.16389722     4.71612423     4.09831884    -0.60322062     0.05377181    -0.91484024
O       2.16454620     0.88402224     3.95749482    -1.22685941    -0.16471187     1.40455715
O       3.75147421     2.68893323     3.18457980     1.98443935     0.59839594    -0.78210853
O       3.74087924    -0.81448475     3.15265480     2.15130581    -0.34243404     0.50883513
O      -0.03910376     2.82871921     3.24656381    -0.53463359     0.36022840     0.03710129
O      -0.04058276    -0.71146976     3.28390981     0.02683050    -0.85227011    -0.10731043
O       5.70396401     6.75588900     1.67734101    -0.58132613    -0.34145368     0.42758541
O       5.65145301     2.74552398     1.63184997     0.10073123     0.24873684     0.63199462
O       1.97493702     6.81976599     1.63408601    -1.15719997    -1.14122853    -0.23135952
O       1.85307199     2.74461501     1.53770400     0.78010024     0.19064891     0.24162517
