# total energy = -19519.92487635 eV

CRYSTAL
PRIMVEC
        5.17575250     0.00001323     0.00000000
        0.00001429     5.50856584     0.00000000
        0.00000000     0.00000000     9.26345890
PRIMCOORD
23 1
Ti      1.83127593     3.35351451     3.41368738     0.05973549     0.01594316    -0.00817843
Ti      3.33104020     2.18230030     5.77070052     0.00067003    -0.00661597    -0.03076609
Ti      4.52747095     1.96683117     1.39917410     0.06383383    -0.04380262     0.02408790
Ti      0.87801527     3.29637059     7.94183426     0.00285444    -0.05638740     0.03006495
Ti      1.90158880     0.61551019     1.13602615    -0.02535109    -0.05763618     0.12434785
Ti      3.20869089     5.13226208     7.95206577    -0.01537160     0.04287342    -0.00293492
Ti      0.67638211     0.62264160     5.71243151     0.03889078     0.02679630    -0.02293656
Ti      4.39994310     4.86518118     3.46240925     0.02389327     0.01563566     0.07063877
O       1.60128117     1.90653850     4.69183049    -0.00054867     0.04285671    -0.03214034
O       3.51126383     3.57301617     4.53679993     0.04129142     0.00559832    -0.03477290
O       0.83199451     2.03889158     0.09643661    -0.06412051    -0.00868082     0.04836478
O       3.58258950     0.86334929     0.09084536    -0.06992606     0.02366213    -0.01623189
O       1.73623510     4.66262107     9.17465393    -0.02917869    -0.00156837    -0.02838165
O       4.17481962     0.79078397     4.74490497    -0.03611938    -0.07403109    -0.06442081
O       0.93082206     4.64165881     4.57298289     0.00936139    -0.00914773    -0.00081170
O       0.15763752     3.39027770     2.44265328    -0.04334650    -0.05031059    -0.03333925
O       4.98282327     2.13317319     6.76956919     0.02057706    -0.01016666     0.10597397
O       2.75829170     2.15873277     2.11718788     0.11069735     0.07128900     0.01681528
O       2.54459418     3.37887986     7.16351119    -0.00219161    -0.01312831    -0.02124118
O       0.23409486     0.57511297     2.21320404     0.00281536     0.03536451    -0.06164428
O       4.96277247     4.78215595     7.32787586    -0.04314801     0.04731911     0.02834128
O       2.33505205     0.69983533     6.79483231    -0.02531920     0.00838771    -0.03018913
O       2.78450879     4.90441641     2.46780608    -0.01999959    -0.00425004    -0.06064540
