# total energy = -19517.87350443 eV

CRYSTAL
PRIMVEC
        5.93400000     0.00000000     0.00000000
        0.00000000     9.29699974     0.00000000
        0.00000000     0.00000000     4.64899994
PRIMCOORD
23 1
Ti      4.50977299     6.92524498     2.26172600     0.93919374     0.31154917     0.17908434
Ti      4.45189502     2.27974200     2.37607898    -0.69888318    -0.58667711    -0.08672771
Ti      1.54525398     7.07104501     2.28718499    -0.81461166     0.05605701    -0.49786500
Ti      1.38879601     2.37767202     2.30179001     0.77696504    -0.62934150    -0.14715869
Ti      2.93005401     4.50526800     0.10397201     0.29162748    -0.52604173     0.73258367
Ti      2.96963102     9.28716700     4.51500502     0.21104368     0.66652609     0.48574764
Ti      5.93349199     4.66239199     0.00186302     0.29424898     0.28621377    -0.49306706
Ti      0.02171003     0.05834401     0.04985098    -0.60405803     0.37287720     0.49803829
O       4.52546002     5.59559099     0.79612198    -1.59851431     0.56548992     1.08754284
O       4.46427501     0.96161402     0.96047100    -0.08241674    -0.22795846    -0.34378593
O       1.50794201     5.49662998     0.98028900     0.55215746     0.62466851    -0.21517133
O       1.50278602     0.87987100     0.88312899    -0.48251911     0.67876943     0.89039135
O       4.44921500     8.43491100     3.76443001     0.26078272    -0.74633676    -0.87516707
O       4.44829000     3.81047398     3.80045200    -0.55121335    -0.76429232    -0.83815757
O       1.43307999     8.51312800     3.74683502     0.38386687    -1.98296302    -1.37080884
O       1.45303199     3.62420100     3.80948299     0.60375952     1.12369977     0.22390666
O       2.82005499     1.47094098     3.27654001     1.35864418    -0.50823092     0.05220318
O       0.08218202     6.02090398     3.16661799    -0.14896257     0.20143727     0.42756382
O       0.03044097     1.42223398     3.18503098    -0.65732745    -0.39109168     0.79617427
O       3.02581398     7.89323802     1.35779400    -0.63054631    -0.88117497     0.98210649
O       2.97142398     3.17639999     1.50915298    -0.03287774     1.29882127    -1.12357096
O       5.88926600     7.79954201     1.37773901     0.49735747     0.95920156    -0.25463752
O       5.84513802     3.27480198     1.46993301     0.13228305     0.09879725    -0.10922565
