# total energy = -19958.15142335 eV

CRYSTAL
PRIMVEC
        4.97493058     0.00000000     0.00000000
        0.52818982     5.26841969     0.00000000
        0.00000000     0.00000000     8.91520848
PRIMCOORD
24 1
Ti      2.11617791     3.12206066     3.30747884     0.80177516    -0.18423375     0.12410282
Ti      3.38694265     2.14635907     5.60772994    -0.80177516     0.18423375    -0.12410282
Ti      4.50574160     2.14636086     1.15008994    -1.08569396    -0.62078075     0.90978648
Ti      0.99737896     3.12205912     7.76511899     1.08569396     0.62078075    -0.90978648
Ti      1.85208310     0.48785086     1.15012571     0.80183918    -0.18162871    -0.10812521
Ti      3.65103746     4.78056908     7.76508323    -0.80183918     0.18162871     0.10812521
Ti      0.73328409     0.48784892     5.60769423     1.08569268     0.62283146     0.89081224
Ti      4.76983643     4.78057097     3.30751460    -1.08569268    -0.62283146    -0.89081224
O       1.76058161     1.85510015     4.54936276    -0.68716074    -0.41447972    -0.34140457
O       3.74253894     3.41331964     4.36584602     0.68716074     0.41447972     0.34140457
O       1.09888421     1.85512145     0.09178707     0.82942122    -0.84590020     0.09037148
O       4.40423640     3.41329838     8.82342151    -0.82942122     0.84590020    -0.09037148
O       3.47844413     0.77910963     0.09175817     0.68729804     0.41427301    -0.34126034
O       2.02467643     4.48931015     8.82345041    -0.68729804    -0.41427301     0.34126034
O       4.14014158     0.77908838     4.54939172    -0.82948241     0.84620281     0.09024138
O       1.36297893     4.48933141     4.36581711     0.82948241    -0.84620281    -0.09024138
O       0.50202571     3.20455163     2.40822028    -0.50088991    -0.19515889    -0.62543522
O       5.00109480     2.06386816     6.50698850     0.50088991     0.19515889     0.62543522
O       2.87513590     2.06381910     2.04941245     0.17920724    -0.58115669    -0.40389295
O       2.62798466     3.20460064     6.86579623    -0.17920724     0.58115669     0.40389295
O       0.23793089     0.57034162     2.04938395    -0.50119561    -0.19482619     0.62558151
O       5.26518961     4.69807811     6.86582467     0.50119561     0.19482619    -0.62558151
O       2.36388984     0.57039069     6.50701695    -0.17953454     0.58112352    -0.40397779
O       3.13923072     4.69802910     2.40819184     0.17953454    -0.58112352     0.40397779
