# total energy = -19960.86278441 eV

CRYSTAL
PRIMVEC
        5.93400000     0.00000000     0.00000000
        0.00000000     9.29699974     0.00000000
        0.00000000     0.00000000     4.64899994
PRIMCOORD
24 1
Ti      4.45646801     7.09746001     2.43025700    -0.64898627    -1.12753277    -1.10818033
Ti      4.43090600     2.25717302     2.35307099     0.46817826     0.66317465     1.08640256
Ti      1.47413298     6.92221402     2.38609202     0.67534163     0.32608259     0.14629377
Ti      1.49505199     2.38205699     2.14038301    -0.69781437     0.27239640     1.17544118
Ti      2.92168301     4.63277902     0.02100802     2.32940799    -0.13050899    -0.63816424
Ti      2.96474999     9.25704501     4.62774501    -0.41722129     0.19005627    -0.19091502
Ti      0.05289799     4.72532101     0.01186997    -2.31119917    -1.00666774    -0.14635445
Ti      5.93100899     0.03972200     0.02848498     0.25821753     0.29442202    -0.08026370
O       4.36313501     5.56029302     0.88837203     0.57690666    -0.05024323     0.13690975
O       4.42280599     0.90279300     0.79294200     0.79834608     0.25316377     0.36239558
O       1.43489502     5.50388801     0.96264602     0.54020312     0.33772867     0.22516521
O       1.50647698     0.97653602     0.85255001    -0.22828705    -1.01698403    -1.08562737
O       4.53433999     8.39262201     3.80629100    -0.48155597    -0.45302032    -0.39445879
O       4.40356801     3.71000201     3.74570300     0.10451898    -0.33439523    -0.29307964
O       1.54388002     8.20581202     3.82430498    -0.50988954     1.21558743     0.36492221
O       1.49299101     3.78060299     3.65806400    -0.34699210    -0.13514289     0.49637505
O       2.97656800     6.07213998     3.26984999    -0.20345661     0.14000408    -0.45942417
O       2.94932199     1.25964300     3.10817100     0.12019860     0.48551367     0.37735478
O       0.01495899     6.06893602     3.28994698    -0.19776804     0.29259936    -0.45472213
O       0.02898902     1.34590000     3.07747501     0.01498568    -0.44644935     0.84997128
O       2.99689598     7.95897999     1.52303298    -0.22761188    -0.23271963    -0.25363068
O       3.03705100     3.11484001     1.31997100    -0.60269740     0.53131918     0.25455653
O       5.88087098     7.85486997     1.41705402     0.65227960     0.33217971     0.23022412
O       5.89939102     3.29397100     1.47386802     0.33489505    -0.40056337    -0.60119125
