# total energy = -19073.05586830 eV

CRYSTAL
PRIMVEC
        5.17600016     0.00000000     0.00000000
        0.00000000     5.50899976     0.00000000
        0.00000000     0.00000000     9.26300011
PRIMCOORD
22 1
Ti      1.45673300     3.17666802     3.61244601     0.81838193    -0.84178360     1.31642330
Ti      4.49348301     2.96121800     5.84631099     0.08864704    -0.98429553    -2.26103950
Ti      4.28522398     2.07946900     1.38620701     0.56386936    -0.78218515     1.51331614
Ti      1.26216701     2.85835002     8.17193197     0.43337040     1.31641713    -1.06818166
Ti      1.74520800     0.51997899     1.41098102    -0.29041572    -0.11503917    -0.11836078
Ti      3.26406900     5.29599999     7.92412599    -1.43683274     0.00354375    -0.18246329
Ti      1.35097603     0.26374797     5.88575401     0.96954665     1.57114927    -1.89797183
Ti      3.91892002     4.98611702     3.46064602    -0.28686066     0.14154005     2.03238581
O       3.27329197     3.50127497     4.53227800    -0.97349278    -1.75807394     0.57246610
O       0.66600502     1.72481800     0.26518702    -0.40515767     0.48755950     0.02935790
O       4.60040798     3.52111902     7.57352400    -0.35310824     1.15826466     1.22631562
O       3.27664500     0.99161202     0.27126398    -0.02859942     0.31834846    -0.63849643
O       2.09970198     4.46130702     9.09617301    -0.59998669    -1.02787600     1.52435235
O       2.92594500     0.35990599     4.81576698     0.48210439     0.55841913    -0.08386556
O       0.32469898     4.35393600     4.87959502     0.06720609     1.84314381    -0.12292217
O       5.11496798     3.33969599     2.63572700    -1.51133665     0.54902740    -1.82453827
O       0.64452799     1.88467700     4.87631798    -0.25823090    -0.09144183     0.27053132
O       2.36606499     1.84545200     2.62442700     0.61753653    -0.59624779    -1.55460293
O       1.83466499     4.30324199     6.82237801     1.12814032    -0.88354707     0.38914895
O       5.03743399     0.60627901     2.28627401     0.20554640    -0.51683384     0.32977573
O       2.17789602     1.45524998     7.23636099     0.69066593    -0.48390056     0.16494404
O       2.40158999     4.54733600     2.40283900     0.07900592     0.13381157     0.38342490
