# total energy = -19958.42875728 eV

CRYSTAL
PRIMVEC
        7.60600008     0.00000000     0.00000000
        0.00000000     7.60600008     0.00000000
       -1.89786986    -1.89786986     4.85670466
PRIMCOORD
24 1
Ti      3.92477801     6.63929998     1.19686500     1.08855509     0.64852887     1.51546379
Ti      3.61006397     2.81470401     1.23740300     3.58585360    -0.87353365    -2.50339255
Ti      0.19056599     6.76080702     1.23437801    -1.01509144    -1.22714326    -0.61889099
Ti     -0.07707498     2.80304401     1.27316702    -1.92677720     0.80378191    -0.40886623
Ti      5.65978522     2.88657622     3.67451379     1.41726998    -0.14708078     0.34196662
Ti      5.66806023    -0.89428775     3.61660381     1.59375828    -0.17633069     0.65469978
Ti      2.02761624     2.86451123     3.66396179    -1.88493916    -2.32046543     0.11742181
Ti      1.93531524    -1.09853879     3.58625481    -0.35951337     2.83751832     0.13380309
O       3.95194597     4.61919298     0.74453001    -0.85040991     2.63458056    -0.04611687
O       4.06065999     0.88283101     0.78504800    -0.67463432    -1.02139554    -1.58660264
O      -0.18675099     4.76323698     0.99727501     1.27691520    -0.51083545    -1.09183248
O      -0.24250399     0.84948099     0.76653600     0.32538840     2.87082775    -0.15997513
O       5.80582020     4.81246020     4.14282682     0.17957722    -1.42891528    -1.30256865
O       5.63437625     0.94176421     4.10057684    -0.31114988     0.64800283     0.64995944
O       1.44966425     4.66782622     3.60711582     1.55199069     0.91483947     1.72957351
O       1.96103421     0.85868725     4.07761081    -0.55084003     0.18317806     0.31915424
O       3.78761924     2.88942621     3.21240881    -0.91982201     0.53539798     0.66472503
O       3.88511724    -0.97369477     3.12428582    -2.27553821    -0.95119282    -0.07413804
O      -0.15933977     2.68286124     3.13453482     1.53929355    -0.04208563     1.48760022
O      -0.14006877    -0.58104578     3.01469983     3.00227982    -0.96059715     3.03158526
O       5.78537999     6.68955298     1.68981801    -3.19763359    -0.80363176    -2.00063113
O       5.61279698     2.82660002     1.73621003    -0.25026279    -0.03662795    -0.50565699
O       2.03589400    -0.50821702     1.68910499    -0.18376941    -1.73822168    -0.17096505
O       1.89428898     2.59662001     1.67756401    -1.16050050     0.16140132    -0.17631578
