# total energy = -19074.59179828 eV

CRYSTAL
PRIMVEC
        5.17600016     0.00000000     0.00000000
        0.00000000     5.50899976     0.00000000
        0.00000000     0.00000000     9.26300011
PRIMCOORD
22 1
Ti      1.98008501     3.46942200     3.27037801     0.10070603    -0.66445764    -0.68687381
Ti      3.46212300     2.27205200     5.92934801    -0.46482991     0.35000826    -0.67097461
Ti      4.49667601     2.26727300     1.23931100    -1.06258000     0.78808892    -0.73547436
Ti      0.64071998     3.19317300     8.09465601     0.59662625     1.76778295     1.23013294
Ti      1.88848200     0.44653500     1.24847000    -0.10744618     0.76368529    -0.71912599
Ti      3.07100497     5.07873902     7.98163301     1.09221583     0.01928277     0.64751277
Ti      0.48155500     0.23464698     6.11079701     0.70880327    -0.07040609    -1.07804750
Ti      4.57203000     5.02634698     3.36535299    -0.29893148    -0.47592191     0.62429185
O       3.50344301     3.55154702     4.35443798     0.59617991    -0.73844733     2.09286075
O       0.94263402     2.05048400     0.17923202     0.32639832    -1.53664249     0.24240807
O       4.28890499     3.65542902     9.07928702    -0.37880154    -0.03636235    -0.20339670
O       3.38826399     0.81588802     0.22348902     1.15804612     0.56235909    -1.72684146
O       1.64561700     4.60653400     9.14154398    -0.68513523     1.16232572     0.10698878
O       4.50066198     0.89823801     4.83554101    -0.97350821     0.01832477    -0.96613762
O       1.02483001     4.62009999     4.42469298    -0.95821194     0.47649090     1.41722961
O       0.23812601     3.59111599     2.36011799    -0.31998059    -0.67084580    -0.26769668
O       5.00331899     1.99061500     6.96624299     0.13268800    -1.09673608    -0.86138261
O       2.74509100     1.97448103     2.21910501     0.10345403     0.24471023     0.86855188
O       2.49598198     3.55137901     7.12702302    -0.83689876    -2.49326368    -1.62613054
O       0.18318899     0.82263800     2.13431499    -0.12198166    -0.91204802     0.99509185
O       2.27700102     0.56317001     6.42113200     0.80663609     1.57211550     0.85610902
O       2.87346702     4.66312400     2.22360000     0.58655138     0.96995725     0.46090409
