# total energy = -19517.18038977 eV

CRYSTAL
PRIMVEC
        5.17600016     0.00000000     0.00000000
        0.00000000     5.50899976     0.00000000
        0.00000000     0.00000000     9.26300011
PRIMCOORD
23 1
Ti      1.93569498     3.21626900     3.36704599    -1.32135083    -1.00540044     2.75045714
Ti      3.35334300     2.29203601     5.89661601    -0.13823721    -0.69726955    -2.86941750
Ti      4.39794101     2.10911203     1.50669601     1.19914368    -1.14760307    -1.67312286
Ti      0.84001898     3.42514198     7.70177598     0.85461187    -1.24997466     2.97153096
Ti      1.90774198     0.21336802     1.36313498     0.44505195     0.91492817    -2.34018940
Ti      3.30783301     5.18916201     7.86502002    -0.10484294    -0.10920122     2.55065587
Ti      0.68184198     0.60482002     5.90574199     0.67052878     0.69895825    -3.99659674
Ti      4.47124401     4.95193101     3.42554299     0.79400606     0.00954831     2.85300768
O       1.67153599     1.98973900     4.81277898    -0.30130666    -0.42317006     0.44999953
O       3.53865399     3.51116800     4.48416001     0.27662046     0.35666768     0.04279654
O       0.34387298     2.51492901     0.10015198    -0.68418752     0.52250955    -0.17204723
O       3.47136302     0.71802802     0.26159401     0.31934244     0.32817033    -0.61757175
O       1.77833100     4.70097102     8.97256699    -0.45122672    -0.37183282     0.50446297
O       4.13022600     0.70378802     4.88777102     0.25878523     0.54230988    -0.42389691
O       0.88187098     4.80525101     4.44451300     1.02457882    -0.15571815     0.35331958
O       0.14835902     3.32607000     2.66709202    -0.11947124    -0.39765648    -0.88570603
O       5.04465900     2.07442298     6.84101198    -0.93671365     0.18344571    -0.02318416
O       2.55356001     1.83631099     2.25194501     0.47263347     0.45924702    -0.36113728
O       2.51794701     3.65245398     6.89202800     0.49047565     0.01061352     0.83009382
O       0.16742401     0.52695301     2.07505301    -0.27504001     0.64043735    -0.17494178
O       5.11212503     4.80904003     6.98760201    -1.86275927    -0.23736356     1.42318840
O       2.41953402     0.85869598     6.97095902    -1.26682876     1.38588245    -0.93033937
O       2.82444801     4.56908301     2.35696299     0.65618665    -0.25752873    -0.26136148
