# total energy = -19959.79812439 eV

CRYSTAL
PRIMVEC
        7.60600008     0.00000000     0.00000000
        0.00000000     7.60600008     0.00000000
       -1.89786986    -1.89786986     4.85670466
PRIMCOORD
24 1
Ti      3.65424101     6.74709598     1.32700498     4.29427840    -1.06744530    -1.53109661
Ti      3.83650897     2.92718799     1.21033399     0.05291204     1.55785101     0.00007456
Ti      0.14698702     6.50888499     1.17895997    -2.86094802     1.19772777    -0.28680409
Ti      0.01861101     2.78856101     1.15846901     0.56984280    -1.05120286     0.79995611
Ti      5.74905324     2.65899921     3.55352583    -0.51082028     1.07939296     0.11357184
Ti      5.61474123    -1.08400176     3.57449781     1.03356354    -0.89293777     0.10312364
Ti      1.92201220     3.01196525     3.58226783     0.66863722    -0.92624694     0.29676481
Ti      1.80667125    -0.84837575     3.67045781    -0.48752633     0.86698428     1.45173460
O       3.63643600     4.88996398     0.96368501     0.37908950    -0.11489442    -1.16567561
O       3.70506097     1.16218500     1.02380902     0.17164408    -3.02487674    -1.80792997
O       0.12950401     4.63785701     0.81327500     0.46990347     0.67217609    -0.41874596
O       0.07418202     0.80576899     0.80550700     0.31968826    -0.11805533    -0.64871117
O       5.60958424     4.57213425     3.98410482     1.16367324     1.15068505     0.80494688
O       5.54136620     0.83530121     4.15548982     0.55943703     0.68132614    -1.61107004
O       1.81123021     4.80716124     4.02170784    -0.02628337     1.63814582     0.94019030
O       1.93872923     1.00700520     3.94559283     0.07968803     0.10296578     1.58877059
O       3.89027624     2.97802223     3.33214082    -0.20859753    -0.75971524    -0.94545412
O       3.81357925    -0.85030476     3.23768083    -0.67291374    -0.30913876     0.53953231
O       0.11545124     2.80814623     3.13573383    -1.90641482    -0.21808208     0.73078158
O      -0.07019679    -0.74714975     3.11309182     1.68293240    -0.71060124     1.11884218
O       5.75772201     6.45000100     1.66604800    -0.55489260     0.37796233    -0.33488040
O       5.76339199     2.74068402     1.50587600    -0.14003879     0.21882796     1.36140606
O       1.98577197     6.80183498     1.80749798    -3.29858260    -0.39457526    -1.04599560
O       2.00314402     2.92183800     1.66994597    -0.77827193     0.04372677    -0.05333216
