# total energy = -4984.14455519 eV

CRYSTAL
PRIMVEC
        3.11928295     0.00000000     0.00000000
        2.29997616     4.31245459     0.00000000
       -0.00001479    -0.00006663     5.05762288
PRIMCOORD
6 1
Ti      2.70962191     2.15619388     2.52881155     0.00000000     0.00000000     0.00000000
Ti      0.00000000     0.00000000     0.00000000     0.00000000     0.00000000     0.00000000
O       2.00786995     0.84042086     0.98565626    -3.00286474     1.65759699     1.70497087
O       3.41137390     3.47196700     4.07196689     3.00286474    -1.65759699    -1.70497087
O       0.70174569     1.31574624     3.51446880     3.00265031    -1.65762013     1.70478627
O       1.59821534     2.99664170     1.54315430    -3.00265031     1.65762013    -1.70478627
