# total energy = -19957.42198487 eV

CRYSTAL
PRIMVEC
        5.93400000     0.00000000     0.00000000
        0.00000000     9.29699974     0.00000000
        0.00000000     0.00000000     4.64899994
PRIMCOORD
24 1
Ti      4.43354903     7.03303199     2.18756102    -0.38450528    -1.37715124     0.19190233
Ti      4.43523700     2.14658402     2.47351898    -2.11272253     4.33471647     0.38184547
Ti      1.47257498     6.98188002     2.48273000     0.11138563    -0.06620465     0.99021730
Ti      1.49181401     2.32101502     2.11706900     0.60131106     2.72659241     0.03034083
Ti      2.88923698     4.49130502     0.07395998     1.58680087     2.19873111    -1.15382539
Ti      3.14202098     0.11230898     4.57761700    -4.26072704    -4.68890149    -0.65250020
Ti      0.06048898     4.62586998     0.06493502    -1.75752218     2.19961891    -1.47865303
Ti      5.89619902     0.42203600     4.53700000     2.70157145    -4.50734040     0.78900089
O       4.40368099     5.50975802     1.08750698     0.27241568    -0.63408004    -1.41942251
O       4.43436200     0.96805702     0.93498000     0.84271768     0.16486639    -0.77905252
O       1.50773701     5.35957799     0.94535198     0.24983933     0.42669992     0.53128370
O       1.44586999     1.02079800     0.73073700     0.09979689     0.26292599     0.19953979
O       4.31225202     8.24616798     3.86378499     1.25952683     2.51665276     0.11810264
O       4.47535302     3.59310199     3.78515502    -0.17850353    -1.12599628    -0.36199655
O       1.66519798     8.40776902     3.70083401    -1.52088625     1.07702317     1.31761964
O       1.45325202     3.62331600     3.76581698     0.38574069    -0.36615736    -0.41120799
O       2.95768701     6.06861899     3.27314798    -0.00299816    -1.20966489     0.84825250
O       2.74658302     1.28533000     3.12012098     2.19846063     0.70219245    -0.24631537
O       5.88112302     6.11650101     3.40939398     0.03702441    -0.69714588    -0.26946791
O       0.06053698     1.28056899     2.92594601     0.19039155    -0.57687040     1.36589212
O       2.76928499     7.79378900     1.42688100     2.18126662     1.29137946    -0.69437655
O       3.12882399     3.27907398     1.62028798    -1.29950981    -1.11145051    -1.03648509
O       0.05217502     7.86694199     1.54239902    -1.23643703     0.80401974    -0.84538520
O       5.91032398     3.23163398     1.27737398     0.03556326    -2.34445563     2.58469137
