# total energy = -39033.93689578 eV

CRYSTAL
PRIMVEC
        5.93200024     0.00000000     0.00000000
        0.00000000     9.29399984     0.00000000
        0.00000000     0.00000000     9.29399984
PRIMCOORD
46 1
Ti      4.46754300     6.98887500     6.87037301    -0.35008565     0.39649974     1.44252799
Ti      4.48692401     6.84649500     2.25874901    -1.20139931     1.02494572     0.22333947
Ti      4.51366498     2.35687303     6.96845098    -1.34944065    -0.94066698     0.08177320
Ti      4.32669502     2.64412499     2.11396400     0.07426223    -2.46976893     1.79329318
Ti      1.44498701     6.96573101     7.06348698    -0.36994152    -0.04050620    -0.22741802
Ti      1.46941002     6.99184602     2.14675002     1.52039979     0.23169093    -0.38431579
Ti      1.46080899     2.26909802     6.98118098     1.13994580     0.25034789     0.67425380
Ti      1.32459400     2.02291403     2.72842102     1.64258097     0.67884296    -0.84558858
Ti      3.07599998     4.81064200     4.81660398    -2.10037660    -1.64643866    -0.39268087
Ti      3.01313198     4.90033099     8.94215602    -1.40287925    -3.08893271     1.96278140
Ti      2.89398402     9.26336900     4.73112799     1.13063661     0.64642545    -1.03486066
Ti      2.90819301     9.28215601     0.02044201    -0.08649914     1.04843095     0.34043784
Ti      0.04147998     4.63581401     4.53096701     1.38815120    -0.57728178     0.18025034
Ti      0.03459200     4.64621801     9.24071698     0.92622534    -0.33158373    -0.74424131
Ti      5.83374499     9.01099701     4.82782598    -0.99973141     1.78127507    -1.59912186
Ti      5.83130400     0.00537099     0.05272399     0.14744948     0.82632072     0.00987767
O       4.53454600     5.65297900     5.46274401     0.75489185     0.29209080     0.02842356
O       4.33196901     5.67329601     0.63827100     1.74359708    -0.21205593     2.04876734
O       4.57035098     0.78469101     5.75246601    -0.50842787     0.56202948    -0.72836577
O       4.44176202     0.85847901     1.04268101     0.07893727     1.43658283    -0.56343587
O       1.31985998     5.70458600     5.61073800     0.77753788    -1.17133667    -1.34605991
O       1.54629699     5.68795502     0.63907202    -0.32959421     0.04221573     1.09124446
O       1.50605502     0.88573799     5.57078798    -0.67270060     0.75488465    -0.24745103
O       1.51759299     0.83961501     1.01936498    -0.01647306     0.80717114     1.33959898
O       4.58020701     8.35392101     8.30974201    -1.01484205     0.45182013     0.33111322
O       4.39003102     8.28855502     3.79695102     1.08971003     0.07638108    -0.24677174
O       4.42798298     3.73091102     8.40122601     0.78071037    -0.45706132     1.41910600
O       4.36541999     3.73033501     3.84057702     0.59816300     0.65262413    -1.03985786
O       1.42140899     8.47201897     8.53232899     0.88919862    -1.90042826    -2.01841418
O       1.40078298     8.41122900     3.86792300     0.78227051    -0.18707739    -1.95920448
O       1.51560899     3.84365398     8.22600198    -0.83151872    -0.23826370     1.48207903
O       1.54765502     3.58958302     3.97298199    -0.63075663     0.07389456    -0.41773474
O       2.94402000     5.91053798     7.59109898     0.75985537     2.38542309    -2.08663791
O       2.96607600     6.05469099     3.03448698    -0.08228562    -0.69704124     1.12004212
O       2.90836801     1.43769701     7.89471501     0.58571680    -0.41650113     0.40488591
O       3.23568001     1.48340401     3.28081100    -1.36292635     0.25557212    -0.46069301
O       5.88334599     6.02188999     7.86846602     0.24950457     0.20860216     0.03350817
O       0.19815799     5.96448199     3.03541399    -1.25370816    -0.59684428     0.64609404
O       0.12898299     1.47731799     7.98059699    -0.72431551    -0.27180093     0.31506027
O       3.04425099     7.87872999     6.00184201    -1.03090528    -0.21886704     0.80697805
O       3.11315299     7.88068499     1.33827000    -0.69024915    -0.22389663     0.37902060
O       3.12245201     3.42941397     6.20530902    -0.40577139    -0.35091740    -0.82246870
O       0.02286099     7.80891098     6.08897898     0.64621925    -0.22597254     0.85531764
O       5.89243699     7.84786298     1.33122999     0.34900193    -0.24736438     0.90486281
O       5.91350502     3.19543502     6.22240901     0.26051790     1.41223010    -2.05657013
O       0.19967699     3.19217900     1.69160800    -0.90065674     0.21430718    -0.69274415
