# total energy = -39035.06950524 eV

CRYSTAL
PRIMVEC
        7.60600008     0.00000000     0.00000000
        0.00000000     7.60600008     0.00000000
       -3.79573973    -3.79573973     9.71340985
PRIMCOORD
46 1
Ti      1.87223747     5.05780043     6.28954462    -0.07435222    -1.69189681    -0.91767308
Ti      3.94118902     6.62893298     1.30442002    -0.57080131    -0.32910107    -0.24879546
Ti      1.88038643     0.96209943     6.14318462    -1.45062260    -1.29091667    -2.24168114
Ti      3.83082402     2.88745498     1.24672102     1.87692709    -0.86998039    -2.78479038
Ti     -1.90306353     4.89748645     5.99888560    -0.34033782    -2.10443946     1.53294807
Ti      0.05598801     6.53578699     1.19080899     0.07825541     0.28687300     0.60940850
Ti     -2.00544255     1.05396042     5.87913162     1.41740908     2.68605998     0.44180722
Ti      0.18481198     2.88688299     1.18221399    -2.53923528    -0.72481328    -1.26008450
Ti      3.76715347     0.93061445     8.30252763    -0.08226582    -0.67376426     2.07445653
Ti      5.68729699     2.98640800     3.45955501     0.73993523    -0.30086186     0.61044362
Ti      3.77906244    -2.90825857     8.54199261     1.11709640     0.75910383     0.20135988
Ti      5.75911602    -0.82411699     3.74321598     1.87723176    -0.36339728    -0.84812163
Ti     -0.24744455     0.86316842     8.37066761     0.75198805     0.34742970    -0.05445007
Ti      1.86219998     2.70266999     3.52935301    -0.10282874     0.13838299     1.89446099
Ti     -0.07366655    -3.03084756     8.57885864    -2.09096302     0.06673481     0.58470559
Ti      2.02125998    -0.97923202     3.62378501    -1.87668078     0.07945637     0.55508749
O       1.75093242    -0.88881754     5.70115360     0.74848158     0.23467187    -0.35644168
O       3.76167701     0.74646002     0.82161801     0.15314396     2.27330804     0.14858128
O      -1.94701355     2.92334843     5.68109360     0.45101897    -0.28777648     0.21796998
O      -0.17899500     4.65805099     0.65416902     0.79998130     1.17814778    -0.23163900
O      -1.78220156    -0.82545957     5.64146563    -0.52827653    -0.73830617    -0.11676926
O      -0.09406200     0.96034802     0.75540000     0.81884447    -0.87561650     1.45039351
O       3.87202344     2.80543944     8.91019261    -0.44406285    -1.18810567     0.16193688
O       5.52944500     4.69880097     4.17550198     0.22608464     2.13253109    -1.07770297
O       3.85038744    -1.05914456     8.82278861    -0.12436559     2.05265537     0.24801179
O       5.87313202     1.17027602     3.95690003    -0.22494281    -2.54431527     0.11329210
O      -0.23488157     2.68057848     8.98241964     0.97101526    -0.52464331     0.18735739
O       2.18001601     4.17854301     4.58220000    -0.74238035     0.59316349     0.83120762
O       0.04057943    -0.82098453     8.98276260    -0.67739389    -0.86683567     0.47619291
O       1.76935499     0.83638301     3.86537702     0.39321952     1.47926598     0.19257904
O       1.94656147     0.74427145     7.90745262    -0.33777675     0.88020695     1.61629221
O       3.90114898     2.75554998     3.02852998    -1.03291331    -0.41484096     2.75319434
O       1.72115647    -2.83510956     8.20665664     2.32291929    -0.42057350    -0.57897228
O       3.92262400    -0.96374200     3.43914898    -1.28583077    -0.07715935    -0.82236457
O      -2.03925153     0.79273244     7.86736761    -0.16849962     0.03867429     0.69147505
O      -0.04453598     3.03929498     3.13123101     1.81653648    -0.31316819     0.05942284
O      -1.94473856    -2.85692854     8.33706264     0.79090865    -0.06385800    -0.57077252
O       0.04293199    -1.29593101     3.38320802     0.76397428     0.46386241    -0.65943318
O       3.88516047     4.75544046     6.60463464    -1.82600406     0.57920111    -0.29994423
O       5.81557802     6.70839497     1.83672698    -0.61230536    -0.50207904    -1.75939986
O       3.76002244     1.14760347     6.17474163    -1.21820970    -0.10528620     0.69119712
O       5.75965801     2.88166599     1.46594799    -0.59048440     0.33827785     0.53174033
O      -0.09724653     4.85411344     6.57495764     0.86924351    -0.36929540    -0.26980035
O       1.97688598     6.43022200     1.68155401    -0.09495190    -0.18503619     0.17768695
O      -0.09804157     0.94952147     6.51467562     1.25334255     0.95152912    -1.09836051
O       2.01018599     3.12131603     1.77313199    -1.20107200     0.26652991    -2.85601330
