# total energy = -19944.02449441 eV

CRYSTAL
PRIMVEC
        5.84860033     0.00000000     0.00000000
        0.00003206     6.22467939     0.00000000
        0.00000000     0.00000000    10.46770856
PRIMCOORD
24 1
Ti      2.11985532     3.68873925     3.88344529     0.02832817    -0.74076106     0.57900416
Ti      3.72877707     2.53594020     6.58426357    -0.02832817     0.74076106    -0.57900416
Ti      5.04405309     2.53594234     1.35036731     0.02896426     0.74080066    -0.57903039
Ti      0.80457929     3.68873735     9.11734167    -0.02896426    -0.74080066     0.57903039
Ti      2.11983941     0.57639967     1.35040929     0.02832817    -0.74076106    -0.57900416
Ti      3.72879298     5.64827996     9.11729969    -0.02832817     0.74076106     0.57900416
Ti      0.80456339     0.57639735     6.58422159    -0.02896426    -0.74080066    -0.57903039
Ti      5.04406900     5.64828228     3.88348727     0.02896426     0.74080066     0.57903039
O       1.85113022     2.19181549     5.34159166     1.21367479     1.10822301     0.04396202
O       3.99750217     4.03286402     5.12611720    -1.21367479    -1.10822301    -0.04396202
O       1.07322672     2.19184056     0.10777093    -1.21354726     1.10842510     0.04321872
O       4.77540573     4.03283895    10.35993763     1.21354726    -1.10842510    -0.04321872
O       3.99748626     0.92052427     0.10773697    -1.21367479    -1.10822301     0.04396202
O       1.85114613     5.30415519    10.35997159     1.21367479     1.10822301    -0.04396202
O       4.77538982     0.92049920     5.34162563     1.21354726    -1.10842510     0.04321872
O       1.07324251     5.30418032     5.12608323    -1.21354726     1.10842510    -0.04321872
O       0.21251265     3.78620288     2.82758929     0.42576610    -0.24928191     0.28977963
O       5.63611973     2.43847657     7.64011957    -0.42576610     0.24928191    -0.28977963
O       3.13681751     2.43841856     2.40629841     0.42580595     0.24945186    -0.29003314
O       2.71181488     3.78626089     8.06141027    -0.42580595    -0.24945186     0.29003314
O       0.21249674     0.67386312     2.40626499     0.42576610    -0.24928191    -0.28977963
O       5.63613564     5.55081633     8.06144369    -0.42576610     0.24928191     0.28977963
O       2.71179897     0.67392114     7.64015293    -0.42580595    -0.24945186    -0.29003314
O       3.13683341     5.55075832     2.82755587     0.42580595     0.24945186     0.29003314
