# total energy = -19517.39590402 eV

CRYSTAL
PRIMVEC
        5.93400000     0.00000000     0.00000000
        0.00000000     9.29699974     0.00000000
        0.00000000     0.00000000     4.64899994
PRIMCOORD
23 1
Ti      4.51784299     6.99429002     2.29933400     0.59899064     0.79162470    -0.49420735
Ti      4.39795699     2.29110000     2.34789400     2.35571552    -0.39035223     0.08370898
Ti      1.51236202     6.91848898     2.28315800    -0.60274265     1.39884005    -0.17228197
Ti      1.51967498     2.32255398     2.24191398    -2.13772858    -0.33649865     0.32348989
Ti      2.87766499     4.54489602     0.05856399     0.93795035    -0.71931831    -0.64845406
Ti      3.00287499     0.09553999     0.04848502    -0.24968763    -0.30505302     0.43559903
Ti      5.89275402     4.72245499     0.08033397    -0.36290595    -0.99427836    -0.42812457
Ti      0.01706602     9.20911298     4.47110701     0.12809498     0.80255421     0.39851368
O       4.48808497     5.54176599     0.98514701    -1.26064217     0.96307081     0.61143530
O       4.44455798     0.98169000     0.85773298    -0.14951767    -0.17002197     0.43588854
O       1.48382100     5.52270302     1.02452901     0.91569462    -0.12005822    -0.39578188
O       1.44489102     0.94051001     0.83662198     0.05719575     0.29426929     0.68450865
O       4.36552599     8.40047902     3.76968098     0.44708390    -0.99042890    -0.53009405
O       4.50359701     3.79362202     3.90819402    -1.40454121    -0.26480290    -1.32440221
O       1.43447300     8.55024000     3.55738798     0.67855654    -0.97912915     0.68330074
O       1.37332001     3.62313100     3.77182399     1.75210384     1.35046909     0.76486182
O       3.05090100     1.30518902     3.24958499    -0.84624241     1.59415089    -0.97340382
O       0.05005302     6.20509603     3.32795799    -0.21800906    -0.75097657     0.35554693
O       5.84643101     1.43374199     3.21435899     0.60019983    -0.33893940    -0.11179444
O       2.97911297     7.83531598     1.42435201     0.21039988    -0.39517407     0.35859498
O       3.03151899     3.20323198     1.35183499    -1.21542468     0.06330161     0.98764517
O       0.07558001     7.86677101     1.40073102    -0.74172651     0.05502214    -0.29772152
O       5.91365901     3.37574900     1.60357402     0.50718268    -0.55827181    -0.74682758
