# total energy = -39040.38963713 eV

CRYSTAL
PRIMVEC
        7.60629642    -0.00000847    -0.00005503
       -0.00000847     7.60629642    -0.00005503
       -3.80314186    -3.80314186     9.70738094
PRIMCOORD
46 1
Ti      1.90150890     4.70836738     6.07533767     0.00009565     0.03287722    -0.01042506
Ti      3.83571015     6.66261243     1.18669030     0.00284904    -0.00751020     0.00232711
Ti      1.90154168     0.98285275     5.92963575    -0.00000874    -0.03578488     0.00059855
Ti      3.79551843     2.84628767     1.24589002     0.01125886    -0.00290021    -0.01237755
Ti     -1.90163997     4.77670899     6.06596313    -0.00010722     0.04374219     0.00620407
Ti     -0.03264363     6.66257846     1.18676640    -0.00302002    -0.00754439     0.00218338
Ti     -1.90175744     0.94442025     6.13176893     0.00012778     0.02100823    -0.03438595
Ti      0.00733448     2.84623520     1.24597909    -0.01111437    -0.00287707    -0.01251485
Ti      3.88594928     0.94253578     8.54599027     0.00123464     0.01336897    -0.01348776
Ti      5.70489384     2.83622788     3.65854873    -0.00023217    -0.00338434     0.02682356
Ti      3.78671104    -2.83770342     8.48993705    -0.00307941     0.00152724    -0.00746572
Ti      5.70470918    -0.93505346     3.64639876     0.00016198    -0.02114090    -0.00107421
Ti     -0.08285259     0.94259956     8.54592155    -0.00084332     0.01344353    -0.01335534
Ti      1.90173926     2.91896390     3.68980166    -0.00031985    -0.02302784    -0.01186642
Ti      0.01677718    -2.83764077     8.48995193     0.00293749     0.00153623    -0.00773620
Ti      1.90154162    -0.96974257     3.47398180     0.00007610    -0.02030221     0.01527184
O       1.90165833     2.85275591     5.65439247    -0.00005888    -0.00070397    -0.02962658
O       3.84292279     4.74873662     0.80584839     0.01735598     0.00189825     0.00680031
O       3.77983768     0.95303726     0.76438832    -0.01888090     0.00066823     0.00198129
O      -1.90153646     2.82967016     5.72478955     0.00001286    -0.02292782     0.01837002
O      -0.03986729     4.74870417     0.80592774    -0.01736549     0.00193836     0.00670750
O      -1.90157013    -0.93606842     5.66262032     0.00007019     0.00460536     0.02857551
O       0.02338295     0.95300930     0.76445864     0.01878911     0.00067929     0.00193938
O       3.65614842     2.82592013     8.85952325     0.00155603     0.00952851    -0.00604698
O       5.70471801     4.74889789     4.09321131    -0.00002083     0.01226211    -0.00015375
O       3.69824408    -0.92971251     8.91825473     0.01119767    -0.00437988    -0.03116667
O       5.70470362     0.95324726     4.09981789    -0.00003445    -0.01192092    -0.03049535
O       0.14704311     2.82594334     8.85950047    -0.00140537     0.00950023    -0.00590068
O       1.90144266     4.83810253     4.06948808     0.00006942    -0.01172501     0.01937430
O       0.10496042    -0.92965663     8.91825901    -0.01104315    -0.00441407    -0.03104120
O       1.90149898     0.85988636     4.04809752     0.00004242     0.03798395    -0.02694260
O       3.78673786     2.85245076     3.25624676     0.01359548     0.00152132     0.01802884
O       1.90163510    -2.81184355     8.06353656    -0.00001414     0.00348539     0.00573845
O       3.81908557    -0.95398818     3.17723100     0.00220318     0.00885848     0.01502476
O      -1.90159121     0.98891047     8.10956160     0.00003497     0.01462238     0.00581070
O       0.01639853     2.85239782     3.25627006    -0.01368907     0.00149818     0.01801573
O      -1.90153223    -2.87952816     8.08626510    -0.00009873     0.00443335    -0.02288823
O      -0.01598711    -0.95396846     3.17727647    -0.00220009     0.00881657     0.01500882
O       3.78501069     4.87354267     6.46776996     0.00331004    -0.02169163    -0.03007549
O       5.70469107     6.68695156     1.62072018     0.00002571     0.02187470     0.03216734
O       3.67054298     0.79458142     6.53757168    -0.00768889    -0.02119053     0.03576483
O       5.70469287     2.81969311     1.68982203     0.00008382    -0.02310857     0.01939564
O       0.01816596     4.87355347     6.46780599    -0.00327816    -0.02170089    -0.03007369
O       1.90156418     6.63047108     1.52684838    -0.00003188     0.00509799     0.01856646
O       0.13270101     0.79454961     6.53772000     0.00751405    -0.02118153     0.03572086
O       1.90156213     2.87496138     1.62733308    -0.00006711     0.01264135     0.01270125
