# total energy = -19954.32375640 eV

CRYSTAL
PRIMVEC
        5.57088581     0.00000000     0.00000000
        0.59146256     5.89953247     0.00000000
        0.00000000     0.00000000     9.98317616
PRIMCOORD
24 1
Ti      2.36967839     3.49605751     3.70368724     0.18315440    -1.09668955     0.68095718
Ti      3.79267015     2.40347500     6.27948926    -0.18315440     1.09668955    -0.68095718
Ti      5.04549190     2.40347701     1.28786113    -0.24402992     0.00987458    -0.14748445
Ti      1.11685665     3.49605579     8.69531554     0.24402992    -0.00987458     0.14748445
Ti      2.07394722     0.54629133     1.28790118     0.18315440    -1.09668955    -0.68095718
Ti      4.08840133     5.35324141     8.69527549    -0.18315440     1.09668955     0.68095718
Ti      0.82112541     0.54628916     6.27944927     0.24402992    -0.00987458    -0.14748445
Ti      5.34122308     5.35324353     3.70372729    -0.24402992     0.00987458     0.14748445
O       1.97148462     2.07732569     5.09433851     1.09145247     1.18112101    -0.27193231
O       4.19086392     3.82220689     4.88883799    -1.09145247    -1.18112101     0.27193231
O       1.23052139     2.07734954     0.10278240    -0.67881057     0.41816463     0.37328755
O       4.93182721     3.82218308     9.88039387     0.67881057    -0.41816463    -0.37328755
O       3.89513275     0.87244048     0.10275003    -1.09145247    -1.18112101    -0.27193231
O       2.26721580     5.02709210     9.88042624     1.09145247     1.18112101     0.27193231
O       4.63609604     0.87241667     5.09437093     0.67881057    -0.41816463     0.37328755
O       1.52625244     5.02711590     4.88880562    -0.67881057     0.41816463    -0.37328755
O       0.56216420     3.58843021     2.69670501     0.20529238     0.28608444     0.49456293
O       5.60018428     2.31110237     7.28647149    -0.20529238    -0.28608444    -0.49456293
O       3.21955322     2.31104742     2.29491499     0.51952115     0.56117947    -0.01612494
O       2.94279532     3.58848509     7.68826140    -0.51952115    -0.56117947     0.01612494
O       0.26643303     0.63866380     2.29488307     0.20529238     0.28608444    -0.49456293
O       5.89591545     5.26086872     7.68829326    -0.20529238    -0.28608444     0.49456293
O       2.64706414     0.63871874     7.28650335    -0.51952115    -0.56117947    -0.01612494
O       3.51528440     5.26081383     2.69667315     0.51952115     0.56117947     0.01612494
