# total energy = -19073.96265910 eV

CRYSTAL
PRIMVEC
        5.93400000     0.00000000     0.00000000
        0.00000000     9.29699974     0.00000000
        0.00000000     0.00000000     4.64899994
PRIMCOORD
22 1
Ti      4.45629899     6.83654900     2.31157302    -0.95855595     0.05740684     0.71330219
Ti      4.34654498     2.35532000     2.31129203     1.18864252     0.72390233    -0.39331028
Ti      1.47681400     7.04426198     2.41711800     0.72919161    -1.79220509     0.14261349
Ti      1.50998702     2.46201700     2.27110398    -0.57920599     0.32927745     0.04040953
Ti      3.01407598     4.63568002     0.02541400    -0.42255608    -0.71082210    -1.52926316
Ti      3.01535199     0.02071501     4.61118700    -0.66188139    -0.34846740    -0.14278292
Ti      5.90863098     4.63150699     4.61668002    -0.20821521    -0.90591774    -0.42123684
Ti      0.00740801     9.20487898     0.17486101    -0.05266213     1.55155566    -1.14182811
O       4.31326000     5.65284802     0.77865099     1.68648592    -0.00857977     2.09063700
O       4.39912202     0.92873502     0.76446798     1.12543758     0.56637541     1.24402667
O       1.53718101     0.93292801     0.96251299    -0.36071511    -0.70571100    -0.86905505
O       4.44992002     8.33440902     3.83555402     0.13042748     0.11812347    -1.40558071
O       4.44947700     3.79857099     3.57724101     0.19441789    -0.46144557     0.24548542
O       1.50959601     8.29607399     3.56894399    -0.57190766     3.45455374     2.77958621
O       1.47194399     3.72157300     3.72249901    -0.20253410     0.07356315    -0.18034187
O       2.90510500     6.06230802     3.44023501     0.10694019     0.13635131    -1.77418397
O       3.02712602     1.61786303     3.25963301    -0.78554738    -2.28261415     0.95322348
O       0.02975601     6.02815000     3.34057501    -0.49737701     0.69203401    -1.30490913
O       2.87064100     7.68525898     1.43147801     1.21019917     1.12721010    -1.24767712
O       2.98612500     3.11824500     1.32979401     0.21498133     1.51824932    -1.16589133
O       0.07471702     7.91579801     1.28684202    -0.65005071    -2.59699488     2.32719427
O       0.08694202     3.30375300     1.30346300    -0.63551472    -0.53584509     1.03958224
