# total energy = -19517.12612290 eV

CRYSTAL
PRIMVEC
        5.93400000     0.00000000     0.00000000
        0.00000000     9.29699974     0.00000000
        0.00000000     0.00000000     4.64899994
PRIMCOORD
23 1
Ti      4.37363600     7.03071599     2.22545101     0.53299888    -0.11833918     0.04475238
Ti      4.57392499     2.37538502     2.34698900    -1.12693165    -1.48942442     0.59059264
Ti      1.37853103     6.97166902     2.17447399    -0.44182470    -0.31276556     0.68314416
Ti      1.49178797     2.37130702     2.29620598     0.17560538    -1.38026485     0.93307400
Ti      3.01458902     4.47043199     0.18004102    -1.43401018     0.70676978    -0.00707182
Ti      3.02816998     0.16361901     4.63727200    -1.46477755     0.08130114    -0.59021340
Ti      5.91317100     4.53948301     0.00241998     0.79378083     1.64321347    -1.09700374
Ti      5.90959699     9.26169902     4.53510899     1.19491858     0.00076028    -0.23821357
O       4.40224502     5.48534400     0.93108499     0.10747729     0.71424192     0.53680823
O       4.54897401     0.93559998     0.94507400    -0.23226198    -0.10129327    -0.47445947
O       1.45833498     5.48116800     1.06363802     0.41563415     0.46721821    -0.29320871
O       1.48267501     1.06487899     0.92432703     0.21738248    -0.93456704    -0.72605152
O       4.38811699     8.37165500     3.58712298     0.53416822     0.47244012     1.26152149
O       4.34643999     3.59557399     3.85923502     0.93734126     0.18228228    -0.07595402
O       1.51909400     8.56222300     3.68635800    -0.38145209    -1.15796127     0.09811385
O       1.61073400     3.74474001     3.75932900    -0.89044457     0.15903950     0.66386860
O       3.08284098     1.34217099     3.14325000    -0.42263347     0.46941625     0.63772175
O       5.91288001     5.99998301     3.47503599     0.10011262     0.65470492    -1.42399290
O       0.08782702     1.41809898     3.27089702    -1.00451727     0.56429436    -0.26008981
O       2.89274199     7.89148200     1.37777801     0.20122618    -0.85278921     0.56780675
O       2.85783200     3.38233302     1.58639799     1.99679607    -0.81750672    -0.05589503
O       5.85628202     7.63469800     1.30459300     0.15150797     1.57928245    -0.44100503
O       0.00496601     3.41237298     1.61420900     0.03990302    -0.53005368    -0.33424482
