# total energy = -19518.44547125 eV

CRYSTAL
PRIMVEC
        7.60600008     0.00000000     0.00000000
        0.00000000     7.60600008     0.00000000
       -1.89786986    -1.89786986     4.85670466
PRIMCOORD
23 1
Ti      3.81079699     6.74020001     1.14580099     0.72635157     0.19149223     0.60082204
Ti      3.75017699     2.87596903     1.13995702     1.05727144    -0.60190139     1.64825489
Ti      0.00684300     6.65254598     1.13945901    -0.26220737    -0.20956787     0.85989394
Ti      0.05093701     2.77709099     1.21431499    -1.66767624    -0.11303448     0.59567212
Ti      5.55874121     2.84315321     3.76174782    -1.19400867    -1.15333714    -1.63163707
Ti      5.77330623    -0.99827780     3.57800282    -0.85043948     0.16098403     0.19069622
Ti      1.84487525     2.92099524     3.70793779     1.89175439    -0.23333310    -0.86807160
Ti      1.94322824    -0.87179475     3.56036582     0.71160449    -0.18532776     0.47606178
O       3.90313398     4.71045600     0.73391302    -0.98615778     1.14104212     0.77400698
O       4.00309302     0.96156502     0.85383998    -0.35099274     0.09648171    -1.03338434
O       0.08728398     4.73348198     0.84470199     0.42676523     0.04194833     0.25779304
O      -0.13723598     0.86567900     0.94373799     0.41166565     0.31282392    -0.80696879
O       5.51320323     4.66999024     4.01244083     1.06420288     1.68135477     0.71766304
O       5.62418720     0.88261421     4.23867083     0.55285012    -0.57252112    -2.13025463
O       2.02583720     4.79389122     4.00275879    -0.83821748     0.04756800     0.24288398
O       1.79064522     1.00762423     4.02454682    -0.39008637    -1.15392850     0.17077016
O       3.73956921     2.76516222     3.33819779    -0.30087883     0.08976753    -0.82948267
O       3.86374425    -1.01000776     3.12418581    -0.33135927     0.37478470     0.54955988
O       0.09004120    -1.08064477     3.20673883    -1.13706540     0.08555837     0.29726257
O       5.72770798     6.54980399     1.66457498     0.66474688     0.09168017    -0.13094222
O       5.66704802     2.82164602     1.76554899     1.23982548     0.20240606     0.27507934
O       1.96238001     6.91906001     1.65974799    -0.42415453    -0.66414010    -0.99174736
O       1.87768800     2.69460199     1.57695000    -0.01379295     0.36919872     0.76606870
