# total energy = -19518.20827821 eV

CRYSTAL
PRIMVEC
        7.60600008     0.00000000     0.00000000
        0.00000000     7.60600008     0.00000000
       -1.89786986    -1.89786986     4.85670466
PRIMCOORD
23 1
Ti      3.72686001     6.68501598     1.22291402     0.49996868    -0.00403123     1.58550581
Ti      3.79653900     2.87321302     1.15271501     0.40581819    -0.05026689     0.18790246
Ti      0.05119599     6.61315699     1.20106000    -1.10901696    -0.24894844    -0.60019032
Ti     -0.03397598     2.76058002     1.13920199     0.20820673     0.40167588    -0.87554888
Ti      5.61008722     2.82207322     3.63330279    -0.27151862    -0.28356630     0.29692319
Ti      5.83036720    -1.00634077     3.59913980    -1.06390103     0.18744840     0.70202969
Ti      2.09118821     3.00171022     3.75291881    -0.08679122    -2.01795626    -1.48495635
Ti      1.91155222    -0.90377278     3.68946882     0.79025019     0.86643226     0.52211771
O       3.81672002     4.75460499     0.80681099     0.35648461     0.67066505     0.75369912
O       3.57583002     1.00522801     0.85128099     0.02206316    -0.97889236    -0.89666048
O       7.28369399     4.71667198     0.74114100     0.64788198    -0.00059187    -0.04748032
O       0.22947502     0.84823203     0.77294000    -0.22893960    -0.22605199    -0.05618042
O       5.32719425     4.69223621     3.97011882     1.89500221     0.66943684     0.36458179
O       5.94780724     0.91033621     4.09340283    -0.59787555     0.65379450    -0.43070031
O       2.00115722     4.79732722     4.13976881    -0.30940204     0.99977718    -0.38569493
O       1.74360522     1.06103923     4.09135883     0.38259598    -0.49215818    -0.73222294
O       3.84172624     2.78667121     3.04141582    -1.05709300    -0.19342648     1.48159026
O       3.78522223    -0.81405077     3.27421682    -1.14155506     0.22330965    -0.40054485
O       0.10114620    -0.71685277     3.18720383    -0.40125216    -1.41429547    -0.40405544
O       5.68248401     6.67361702     1.78381597     0.14569470     0.06081201    -1.68097913
O       5.75985100     2.53746000     1.52425199    -0.54204325     0.57051978     0.67206348
O       1.85772399     6.30946502     1.45126300     0.68822261     0.61527447     0.92518096
O       1.65795201     3.00490698     1.83331998     0.76719947    -0.00896030     0.50361990
