# total energy = -4987.84932214 eV

CRYSTAL
PRIMVEC
        4.03468597     0.00000000     0.00000000
        1.37017046     3.79490761     0.00000000
       -2.70246502    -1.89747965     5.23231721
PRIMCOORD
6 1
Ti      1.02751152     2.84632627     1.30807936     0.00019643    -0.00019643     0.00000000
Ti      1.67487918    -0.94889880     3.92423796    -0.00019643     0.00019643    -0.00000000
O       0.34258464     0.94872168     0.85230177    -0.00058184    -0.00083587    -1.48606038
O       2.35980587     0.94870566     4.38001566     0.00058184     0.00083587     1.48606038
O      -0.34255192    -0.94869875     3.46846038    -0.00083587    -0.00058184    -1.48606038
O       3.04494237     2.84612604     1.76385705     0.00083587     0.00058184     1.48606038
