# total energy = -19073.06556957 eV

CRYSTAL
PRIMVEC
        5.93400000     0.00000000     0.00000000
        0.00000000     9.29699974     0.00000000
        0.00000000     0.00000000     4.64899994
PRIMCOORD
22 1
Ti      4.44112901     6.97044799     2.34369101    -1.29188931    -0.15431201     0.52443993
Ti      4.40421700     2.37218498     2.12757899     1.17205041    -1.03403508     1.54708220
Ti      1.44685998     7.26172700     2.52884097     1.33265211     0.08347449     0.90557141
Ti      1.61134600     2.41024600     2.17073398    -0.14146112    -0.23276334     1.23477815
Ti      3.01456499     4.50587501     4.44167301    -1.19462419     1.05523718    -0.16899327
Ti      3.01578501     0.14580802     0.16505001     0.17413471    -0.38365707    -1.19610669
Ti      5.79300401     4.61886399     4.43666699     0.83027431    -0.07370996    -0.27543518
Ti      0.00488103     0.00111799     0.25070100    -0.29831853    -0.67445306    -0.23652384
O       4.34640099     5.49510801     0.72595297     0.22672176    -0.05166274     2.00274690
O       4.47602100     0.59558402     1.27331402     0.64532554     1.66099059     0.13119984
O       1.55297002     0.55158198     1.32638299    -0.94605010     1.38416496    -0.48173338
O       4.50401099     8.32735202     3.98254501    -0.01469823     0.92106848    -1.01303430
O       4.37179902     3.96100501     3.36333498     0.80501116    -2.21418087    -1.01720798
O       1.52249798     8.34091901     3.98216999    -0.36471652     0.67925408    -0.57721699
O       1.41005602     3.88768100     3.38516798     0.12358089    -0.47228971     0.52932426
O       2.86352198     6.08496898     3.34272701    -0.41560741     0.16927790    -0.76763707
O       2.99435000     1.46289098     3.41278902     0.31053590     0.20361833    -0.48958193
O       5.90716400     6.17422298     3.38825102     0.81794844    -0.44706744    -0.37570927
O       3.00853401     7.93381698     1.56850502    -0.37717609    -1.74029527     0.33212803
O       3.06396702     2.70096101     1.00907402    -0.70500472     2.34959887    -1.10735706
O       5.85935098     7.87623201     1.46421398     0.83558621    -1.77225975     0.90681917
O       0.10821500     2.83035400     1.19811000    -1.52427522     0.74400117    -0.40755291
