# total energy = -4979.80859623 eV

CRYSTAL
PRIMVEC
        5.13425009     0.00000000     0.00000000
       -0.00000777     3.08055005     0.00000000
       -2.56715396    -1.54033122     5.59141979
PRIMCOORD
6 1
Ti     -0.00022007     2.31052204     1.39785458    -0.00645347    -0.00891916    11.59408316
Ti      2.56730826    -0.77030332     4.19356453     0.00645347     0.00891916   -11.59408316
O       0.00005438     0.77012762     0.91079648     0.00413382     0.00497072    -5.83887974
O       2.56703369     0.77009104     4.68062269    -0.00413382    -0.00497072     5.83887974
O      -0.00002115    -0.77013787     3.70650637    -0.00237184    -0.00008562    -2.31583359
O       2.56710916     2.31035647     1.88491273     0.00237184     0.00008562     2.31583359
