# total energy = -19069.80711265 eV

CRYSTAL
PRIMVEC
        5.17600016     0.00000000     0.00000000
        0.00000000     5.50899976     0.00000000
        0.00000000     0.00000000     9.26300011
PRIMCOORD
22 1
Ti      1.79124001     3.38121302     3.16566002     0.41272623    -0.12144559     1.71583584
Ti      3.59270199     2.48629100     6.05656698    -3.02924684    -1.61115334    -1.13485707
Ti      4.43507999     2.09728899     1.55150600     2.73319449     0.25644527    -1.32643878
Ti      0.80035699     2.40106398     7.76751101     0.92288060    -0.61527884    -1.03213709
Ti      1.99133601     0.55978798     1.29165499    -1.35721053     0.67952353    -1.01952403
Ti      3.40570800     5.45313701     7.97365698    -2.20928369     2.27341320     0.10300486
Ti      0.73455200     5.10963398     6.28316099     2.76852326     3.16653995    -0.99565133
Ti      4.45182300     5.05768602     3.51441699    -0.90830655     0.21362558     2.53646080
O       3.44154600     3.57433102     4.53653099     0.03754558     0.11661191    -1.07402629
O       0.96395198     2.08875701     0.31575800    -0.14773076     1.17465365     1.08129763
O       4.61990202     4.31737901     7.16357202     0.61211741    -2.21210907     0.74762668
O       3.65799500     0.62597398     0.46947399     0.72628703    -0.51945945    -1.65120009
O       1.58094101     0.63374199     7.92276199     0.03039559    -3.70370864     2.82756995
O       4.23855001     0.68626299     5.39428800     0.49930508     0.79239886    -0.49596933
O       0.84838998     4.54371098     4.50501298     0.67915561    -0.70294526    -0.59141874
O       0.02815800     3.79909699     2.38215701     0.84659619    -2.86847416    -1.43750431
O       3.95164000     2.14914100     7.86195899     1.75318473    -1.48886957     0.31791677
O       2.90562401     1.76282103     2.45511902    -1.76690440     0.98232169     2.13439874
O       2.14082001     3.68035898     6.80187800    -1.39372021     2.90513708     1.93207753
O       0.25936702     0.67200298     2.25169799    -0.04467602     0.54467092     1.34024818
O       1.84553799     1.56778698     6.21028598    -0.49570450     0.26739534    -3.37319501
O       2.80269798     4.58990900     2.32965998    -0.66912805     0.47070694    -0.60451491
