# total energy = -19518.77496384 eV

CRYSTAL
PRIMVEC
        7.60600008     0.00000000     0.00000000
        0.00000000     7.60600008     0.00000000
       -1.89786986    -1.89786986     4.85670466
PRIMCOORD
23 1
Ti      3.81070698     6.68501000     1.24512401    -0.25038775     0.19654214    -0.15533917
Ti      3.75135499     2.93874199     1.15540799     0.43847327    -0.38541879     1.73060838
Ti     -0.06693298     6.56919500     1.17918599     0.75277223    -0.27422497    -0.16665845
Ti      0.02637202     2.75551198     1.18276201    -0.56352046     0.38030229     1.06469756
Ti      5.68273125     2.82909022     3.60250283    -1.43032270     0.13833003     0.81471810
Ti      5.72523524    -1.00258377     3.67524184    -0.28151636    -0.12732108    -0.14089162
Ti      1.92286222     2.90182621     3.65739581     1.45384599     0.35717213    -0.03652819
Ti      1.83973620    -0.92376779     3.62878579     0.60765038    -0.34558930    -0.38645649
O       4.07682900     4.77690299     0.80158399    -1.00173533     0.07170372    -0.05932591
O       3.77270401     1.06722600     0.85122701    -0.11834612    -1.03870344    -0.62237046
O      -0.17217898     4.78845498     0.78374500     0.67919289    -0.76199221     0.07550741
O       0.17182999     0.85983403     0.83731298    -0.27283734     0.81155899    -0.77022386
O       5.78560124     4.69417422     3.96937781     0.14440838     0.44004678     0.05633623
O       5.53158822     0.92498723     4.25691379     0.52425173    -0.36904780    -3.15877830
O       1.88390223     4.76025724     4.09576180    -0.54142259     0.61087017     0.01869193
O       2.01527223     0.98454724     4.01026480    -0.98558828    -0.26831708     0.12070640
O       3.76753723     2.92158723     3.25230380     0.48235250    -0.12791089    -1.12809944
O       3.81452923    -1.06431478     3.15610583     0.07773733     0.19752687     0.84609071
O      -0.00950476    -1.06617479     3.13192180     0.06461493     0.60053253     1.38160619
O       5.74229501     6.76586399     1.62485002    -1.07577722     0.35845382     0.26108534
O       5.78124902     2.80661701     1.71795002     0.18020020    -0.35062738    -0.04908135
O       1.87946699     6.60946502     1.61976902     0.89972780    -0.09767085     0.31393850
O       1.83733998     3.01455002     1.64563801     0.21622677    -0.01621544    -0.01023325
