# total energy = -19517.02708022 eV

CRYSTAL
PRIMVEC
        5.93400000     0.00000000     0.00000000
        0.00000000     9.29699974     0.00000000
        0.00000000     0.00000000     4.64899994
PRIMCOORD
23 1
Ti      4.40532001     6.93785702     2.30455100     0.90929102     0.96800270     0.65939230
Ti      4.48292200     2.37161400     2.37017998     0.44126626    -0.82464256    -0.32371821
Ti      1.32951302     7.01408601     2.13339798    -0.36929463     0.95578944     0.02990605
Ti      1.56054001     2.26836898     2.29277098    -0.30478280     0.30393022     0.84344891
Ti      2.90542203     4.68150201     0.23274702     0.52919031    -1.30623453    -0.03858045
Ti      2.92187600     9.20304702     4.63106301     1.50956927     0.35084310    -0.66084138
Ti      5.90984502     4.58300699     4.58184799     0.25253976    -0.71228943    -0.48049462
Ti      0.01920898     0.10428401     4.55820302    -1.71055891    -0.02480344     0.48472075
O       4.54931898     5.65215300     1.01492799    -0.98652596    -1.87829131    -1.27145315
O       4.48197800     1.01422302     0.93449300     0.37053210    -0.61546448    -0.58655267
O       1.31834600     5.48266399     0.89354801     1.33318356     1.48772697     0.38785183
O       1.48519702     0.86896900     0.91749201     0.59036793    -0.14941843     0.13019943
O       4.55950501     8.33898201     3.87916902    -1.05565704    -0.13078204    -1.20193872
O       4.37716799     3.75133398     3.88761199     0.10561016     0.49555744    -0.59661288
O       1.58177298     8.48367500     3.45120100    -0.10421456     0.06724260     1.55841100
O       1.58085898     3.54010097     3.86963399    -0.33345961     1.74719920     0.38524678
O       3.12043098     1.38912600     3.21407000    -0.80099612    -0.09975550     0.28829533
O       0.13171201     6.18181403     3.22003399    -0.49455085    -1.55757616     1.06776720
O       0.02753399     1.46226301     3.28595900     0.33076509    -0.22601111    -0.24186865
O       3.03749699     7.78213102     1.31433701    -0.95629595     0.05042501     0.32365624
O       3.05685901     3.27937503     1.45367700    -0.75542356     0.13584583     0.58876510
O       5.74479199     7.82311500     1.36477099     1.69357420     0.86909850    -0.10911637
O       0.10755099     3.33385700     1.65448098    -0.19412967     0.09360850    -1.23648305
