# total energy = -19073.24143111 eV

CRYSTAL
PRIMVEC
        5.17600016     0.00000000     0.00000000
        0.00000000     5.50899976     0.00000000
        0.00000000     0.00000000     9.26300011
PRIMCOORD
22 1
Ti      1.71532298     3.33876401     3.28056499     2.45658174     1.44512789     0.08761757
Ti      3.81646400     2.19711500     6.00277601    -1.91810460    -1.24734416    -1.02184496
Ti      4.43790500     2.24608601     1.32271500    -0.04405715    -1.71486422    -0.89602079
Ti      0.96486899     3.26898003     8.12334398    -1.62844916    -0.31134965    -0.03321275
Ti      1.77606602     0.58657002     1.28344602     0.04281197    -0.53076331    -0.84001700
Ti      3.34259901     5.20906601     7.97012399    -0.14976450     1.98087914     0.18347348
Ti      0.78289800     0.05712902     5.99723002     0.01202505     0.70070866     0.00718392
Ti      4.33785198     4.86450299     3.50569101    -0.41306330     0.74824683     0.78453848
O       3.43477999     3.36708901     4.41752300     0.30537466    -0.46723235     1.03630048
O       0.92602198     2.01366200     0.25364000    -0.68657659    -0.10771898    -0.51826620
O       4.37043501     3.82134402     8.56552698    -0.50487435    -0.75129051     0.34677998
O       3.45918898     0.99442899     0.13675501    -0.38242448    -0.30069011    -0.37320656
O       1.64954698     4.76687301     8.95892602     0.48847636     0.47514004     0.83335398
O       4.31955700     0.74315700     4.96127300    -0.00517512     0.27720693    -1.48916653
O       1.00593902     4.87105097     4.27976901     0.08712186    -0.66786846    -0.37561389
O       0.13651000     3.66819600     2.37332599    -0.67559283    -1.28157353    -1.14999933
O       4.84883299     0.99641801     7.21916400    -0.43810457     0.80436015     0.90616868
O       2.54953498     2.11110501     2.06242399     1.03371627     0.39277421     1.44696546
O       1.65434498     4.05800601     6.55855701     1.97873047    -1.72996483     0.82847042
O       5.12548998     0.73060201     2.25315598     0.59158072     1.00383258    -0.49882274
O       2.25482998     1.09187597     6.59027801     0.79436396     1.20588460     0.51027032
O       2.81234599     4.77907198     2.32360402    -0.94459691     0.07649883     0.22504849
