# total energy = -19074.44592887 eV

CRYSTAL
PRIMVEC
        7.60600008     0.00000000     0.00000000
        0.00000000     7.60600008     0.00000000
       -1.89786986    -1.89786986     4.85670466
PRIMCOORD
22 1
Ti      3.89104799     6.76359599     1.06350900    -0.39867129     0.29191236     1.53785733
Ti      3.78615802     2.99944000     1.14526498    -0.96076016    -0.46702641     0.89581690
Ti      0.18662002     6.67180200     1.27095098    -0.55482704    -0.45874025    -0.48538975
Ti     -0.11492301     2.75920501     1.30954499     2.45453565     0.78245769    -1.58923288
Ti      5.69311021     2.97045320     3.58776280    -1.42676018     0.79981573     1.59996827
Ti      5.60135924    -1.05970776     3.72457984     0.50714437     0.60623293    -0.08478961
Ti      1.67961325     2.94266822     3.63894679     1.36744712    -1.25194644    -1.73593879
Ti      1.59610125    -0.87717479     3.77024482     3.39316118     1.11507706     0.37724191
O       3.43620200     4.93232102     0.64324903     0.63578751    -1.13108964     1.25399073
O       3.66932399     1.10759503     1.02897802     0.98075075    -1.30311913    -1.35677216
O       0.19737401     4.78594001     0.73866498    -0.84516975    -0.21210195    -0.02548915
O       7.16939001     0.96034299     0.81464398     0.53244301    -0.57838375    -0.56920260
O      -1.46737676     4.86674924     4.14702780    -0.64415183    -1.57959869     0.24349976
O      -0.05797878    -0.78165179     3.56943581    -3.30082691     0.75335099    -1.78153475
O       1.67625620     4.81989721     3.94370981     0.52729849     0.35515432     0.04504317
O       2.03236122     0.97289523     4.06254481     0.14145058     0.85533049     0.39692140
O       3.84977222     2.97133724     3.15568381     0.13036655     0.20560991     0.50263491
O      -0.21338776     2.41703021     3.18995180     2.15649584    -0.06724363     0.45671371
O       5.62467299     6.53942698     1.72764698    -0.13643770     0.17169499    -0.04655884
O       5.78939697     3.07941000     1.45230299    -3.26788027     1.00561410     0.55249659
O       2.00044500     6.84723801     1.88592702    -0.51876628    -0.26115784    -0.64941745
O       1.88248298     2.83406401     1.62892997    -0.77262938     0.36815743     0.46214131
