# total energy = -19948.37996911 eV

CRYSTAL
PRIMVEC
        6.30406666     0.00000000     0.00000000
        0.00002481     4.47295546     0.00000000
        0.00000000     0.00000000     9.79417810
PRIMCOORD
24 1
Ti      2.28493576     2.65066925     3.63357022     0.17762704     0.97186887    -1.15270182
Ti      4.01915582     1.82228621     6.16060799    -0.17762704    -0.97186887     1.15270182
Ti      5.43686041     1.82228777     1.26347973     0.17959574    -0.97188533     1.15365390
Ti      0.86723116     2.65066790     8.53069853    -0.17959574     0.97188533    -1.15365390
Ti      2.28492335     0.41419162     1.26351899     0.17762704     0.97186887     1.15270182
Ti      4.01916822     4.05876400     8.53065927    -0.17762704    -0.97186887    -1.15270182
Ti      0.86721876     0.41418996     6.16056868    -0.17959574     0.97188533     1.15365390
Ti      5.43687282     4.05876566     3.63360948     0.17959574    -0.97188533    -1.15365390
O       1.99528569     1.57500368     4.99789413     1.28109093    -0.46362998     0.86690663
O       4.30880589     2.89795184     4.79628408    -1.28109093     0.46362998    -0.86690663
O       1.15680210     1.57502170     0.10083656    -1.28140538    -0.46399096     0.86663975
O       5.14728958     2.89793381     9.69334133     1.28140538     0.46399096    -0.86663975
O       4.30879354     0.66147405     0.10080476    -1.28109093     0.46362998     0.86690663
O       1.99529804     3.81148141     9.69337313     1.28109093    -0.46362998    -0.86690663
O       5.14727718     0.66145608     4.99792588     1.28140538     0.46399096     0.86663975
O       1.15681435     3.81149949     4.79625228    -1.28140538    -0.46399096    -0.86663975
O       0.22905654     2.72070507     2.64565187    -0.20496533     0.03045293     0.98316450
O       6.07503504     1.75225045     7.14852634     0.20496533    -0.03045293    -0.98316450
O       3.38109692     1.75220874     2.25146839    -0.20400554    -0.03030252    -0.98308403
O       2.92299466     2.72074678     7.54270966     0.20400554     0.03030252     0.98308403
O       0.22904413     0.48422728     2.25143708    -0.20496533     0.03045293    -0.98316450
O       6.07504744     3.98872817     7.54274092     0.20496533    -0.03045293     0.98316450
O       2.92298231     0.48426899     7.14855755     0.20400554     0.03030252    -0.98308403
O       3.38110927     3.98868652     2.64562061    -0.20400554    -0.03030252     0.98308403
