# total energy = -19517.99296097 eV

CRYSTAL
PRIMVEC
        7.60600008     0.00000000     0.00000000
        0.00000000     7.60600008     0.00000000
       -1.89786986    -1.89786986     4.85670466
PRIMCOORD
23 1
Ti      3.83938003     6.60828300     1.22413901    -1.62052501    -0.34739139     0.71571260
Ti      3.76639600     2.66570701     1.21692902     0.01521862     0.54205405     0.47533570
Ti     -0.13657102     6.73833498     1.10917700     2.32898247     0.32123503     0.04632410
Ti     -0.03168798     2.91452298     1.17702297    -0.33769961    -0.98946936     1.16623457
Ti      5.68583625     2.85600624     3.74977180    -1.06906869     0.81283014    -1.79916970
Ti      5.83144222    -0.84414778     3.56609882    -0.49061140    -0.72109366     0.49853092
Ti      2.03519925     2.79660223     3.72941482    -0.52790450    -0.50494711     0.31872615
Ti      1.91568224    -1.02202278     3.62832980     0.27785254     0.54741969    -1.45039454
O       3.92756699     4.66819701     0.82292598     0.01785503     0.07009575     0.78053862
O       3.49601098     0.85084002     0.93220902     0.70605450     1.07312486    -1.41716482
O       7.18863598     4.85382800     0.71935800     0.55210527    -0.48100113     0.71902752
O       0.07738900     0.90460200     0.65365202     0.48584226     1.51372392     0.31000805
O       5.77133520     4.92198725     3.83982083    -0.17024952    -2.31780768     0.10880604
O       5.87906622     0.99786224     4.22654282     0.56105143     1.03397286    -2.00682955
O       1.98366421     4.67322023     4.07532582    -0.24546999     1.07137986     0.24646913
O       1.68542123     0.89291321     4.07773982     0.20139536     0.00903435     0.59841060
O       3.75674222     2.79805122     3.17468482     1.97527516    -0.12131395     0.18767517
O       3.75477924    -0.63019475     3.19526579     0.74196948    -1.12706791     0.24623927
O       0.07220322    -0.94075676     3.05877283    -1.09536697     0.00830081     0.66263961
O       5.75866802    -0.53040499     1.56865700    -1.83482937    -0.71909488     0.39080037
O       5.85021399     2.45622902     1.74513799    -0.66570899     0.91065962     0.03509840
O       1.89111301     6.56086602     1.61697401     0.66884265    -0.71478546     0.02479984
O       1.75256001     2.87962998     1.82483600    -0.47501097     0.13014158    -0.85781829
