# total energy = -19923.03641508 eV

CRYSTAL
PRIMVEC
        6.18865776     0.00000000     0.00000000
        3.09960441     5.81169533     0.00000000
        0.00000000     0.00000000    11.46198673
PRIMCOORD
24 1
Ti      4.07991351     3.44400528     4.25231535     0.59636991    -2.84195014     0.54874304
Ti      5.20834882     2.36769020     7.20967151    -0.59636991     2.84195014    -0.54874304
Ti      6.60010056     2.36769228     1.47863229    -1.72688645    -1.21365910     0.74326789
Ti      2.68816196     3.44400347     9.98335462     1.72688645     1.21365910    -0.74326789
Ti      2.53011155     0.53815780     1.47867826     0.59636991    -2.84195014    -0.54874304
Ti      6.75815090     5.27353790     9.98330871    -0.59636991     2.84195014     0.54874304
Ti      1.13835970     0.53815557     7.20962553     1.72688645     1.21365910     0.74326789
Ti      8.14990273     5.27354007     4.25236126    -1.72688645    -1.21365910    -0.74326789
O       3.05017272     2.04639677     5.84896412     1.73275628     2.05858022    -1.07207508
O       6.23808969     3.76529876     5.61302273    -1.73275628    -2.05858022     1.07207508
O       2.22705177     2.04642016     0.11800758     0.57591035    -1.32463670     1.70541439
O       7.06121071     3.76527541    11.34397890    -0.57591035     1.32463670    -1.70541439
O       4.68828760     0.85945106     0.11797038    -1.73275628    -2.05858022    -1.07207508
O       4.59997479     4.95224440    11.34401610     1.73275628     2.05858022     1.07207508
O       5.51140863     0.85942771     5.84900125    -0.57591035     1.32463670     1.70541439
O       3.77685372     4.95226783     5.61298554     0.57591035    -1.32463670    -1.70541439
O       2.11020333     3.53500251     3.09616857     0.68289605     3.01891306     2.81183788
O       7.17805907     2.27669302     8.36581822    -0.68289605    -3.01891306    -2.81183788
O       4.53340998     2.27663874     2.63486126     0.81279980     1.92804295     1.65737202
O       4.75485242     3.53505679     8.82712535    -0.81279980    -1.92804295    -1.65737202
O       0.56040125     0.62915481     2.63482467     0.68289605     3.01891306    -2.81183788
O       8.72786114     5.18254065     8.82716193    -0.68289605    -3.01891306     2.81183788
O       3.20505034     0.62920909     8.36585475    -0.81279980    -1.92804295     1.65737202
O       6.08321205     5.18248637     3.09613198     0.81279980     1.92804295    -1.65737202
