# total energy = -19073.08975112 eV

CRYSTAL
PRIMVEC
        5.93400000     0.00000000     0.00000000
        0.00000000     9.29699974     0.00000000
        0.00000000     0.00000000     4.64899994
PRIMCOORD
22 1
Ti      4.46173301     6.79303899     2.56122398    -1.25145639     0.49130020    -1.08262098
Ti      4.41460803     2.36046000     2.30749698    -1.20207062    -0.42506007    -0.66380020
Ti      1.41903298     7.19208198     2.43637699     2.01798891    -1.47508665     0.23175470
Ti      1.64468898     2.27634500     2.06662401     1.52019410     1.39388759     0.48413711
Ti      2.93245399     4.67011899     4.52947600     0.86166235     0.61425657     0.15814784
Ti      2.94229197     9.12413198     4.58538601     2.59195063     0.34634624    -0.64674504
Ti      5.81169597     4.54768499     4.53373397     0.50181705     0.35782030     1.26685576
Ti      0.07871702     9.16467500     0.26284102    -2.62009856    -0.45749610    -0.36023483
O       4.49524300     5.62754499     0.86149199     0.68537460    -0.27335208     1.08416030
O       4.50201102     0.78641301     0.88570698     0.02077555     1.76433355     0.82083502
O       1.53998200     0.87037402     0.84330602    -0.14412273     0.99446168     0.07707913
O       4.60623602     8.42130300     3.77721001    -0.64354685    -0.29053399    -0.49864173
O       4.49535100     4.12634798     3.39514001    -1.27374529    -1.52650565     0.16281465
O       1.39506400     8.56748398     3.54856702    -0.29961179     1.30179681     1.81615698
O       1.57254900     3.93654501     3.58251898    -0.87647242    -0.50358802     0.74558831
O       2.83217802     6.35805699     3.54810901     0.31506284    -0.38229104    -0.69232609
O       2.86562102     1.29499600     3.09516800     1.12005548     0.66996957     0.82180946
O       0.00373800     6.20220100     3.39610100     1.23999595    -1.32882811     0.32250927
O       2.76439899     7.92729799     1.33656103     0.57009837    -1.01890516     0.19432276
O       3.07733901     3.45453402     1.38992400    -0.38782972    -1.47566875    -0.11959954
O       5.91587499     7.87018299     1.62446499    -1.69302809     0.30866182    -2.16022059
O       0.06875002     3.02848902     1.63196999    -1.05299363     0.91448106    -1.96198178
