# total energy = -19956.17227892 eV

CRYSTAL
PRIMVEC
        5.29427506     0.00000000     0.00000000
        1.38703260     5.46132704     0.00000000
        0.00000000     0.00000000     9.55165515
PRIMCOORD
24 1
Ti      2.74087436     3.23637751     3.54359611     1.06247921    -1.92222737     0.94792135
Ti      3.94043345     2.22494989     6.00805957    -1.06247921     1.92222737    -0.94792135
Ti      5.13104922     2.22495178     1.23219359    -2.04256996    -0.44644446     0.78592919
Ti      1.55025862     3.23637583     8.31946220     2.04256996     0.44644446    -0.78592919
Ti      2.04735818     0.50571403     1.23223189     1.06218430    -1.92254002    -0.95133680
Ti      4.63394966     4.95561359     8.31942390    -1.06218430     1.92254002     0.95133680
Ti      0.85674233     0.50571193     6.00802127     2.04274685     0.44629688     0.78378438
Ti      5.82456550     4.95561563     3.54363441    -2.04274685    -0.44629688    -0.78378438
O       2.16406925     1.92302621     4.87413674     0.61293965     1.10355774    -0.72793820
O       4.51723851     3.53830120     4.67751895    -0.61293965    -1.10355774     0.72793820
O       1.45990039     1.92304825     0.09833967     0.18388485    -0.46330962     0.54114980
O       5.22140749     3.53827925     9.45331574    -0.18388485     0.46330962    -0.54114980
O       3.82372230     0.80763756     0.09830868    -0.61260078    -1.10301292    -0.72789269
O       2.85758551     4.65368984     9.45334674     0.61260078     1.10301292     0.72789269
O       4.52789127     0.80761556     4.87416773    -0.18357786     0.46285042     0.54177097
O       2.15341649     4.65371190     4.67748796     0.18357786    -0.46285042    -0.54177097
O       1.03602511     3.32188882     2.58014050     0.01275859     0.36099716     0.20920483
O       5.64528265     2.13943859     6.97151519    -0.01275859    -0.36099716    -0.20920483
O       3.38284919     2.13938766     2.19571774     1.05909666     0.09083917    -0.51517239
O       3.29845862     3.32193979     7.35593778    -1.05909666    -0.09083917     0.51517239
O       0.34250890     0.59122518     2.19568724     0.01288689     0.36133243    -0.20941463
O       6.33879891     4.87010228     7.35596829    -0.01288689    -0.36133243     0.20941463
O       2.60494241     0.59127610     6.97154564    -1.05933989    -0.09098726    -0.51536265
O       4.07636540     4.87005130     2.58010999     1.05933989     0.09098726     0.51536265
