# total energy = -19936.06467070 eV

CRYSTAL
PRIMVEC
        5.06642050     0.00000000     0.00000000
        2.30959235     4.87253938     0.00000000
        0.00000000     0.00000000     9.31834463
PRIMCOORD
24 1
Ti      3.20499599     2.88746230     3.45703937     4.01647138    -4.35426972     1.26026422
Ti      4.17101670     1.98507702     5.86130531    -4.01647138     4.35426972    -1.26026422
Ti      5.31039116     1.98507866     1.20209575    -8.43968577     1.74338394     2.04933324
Ti      2.06562162     2.88746083     8.11624909     8.43968577    -1.74338394    -2.04933324
Ti      2.05019993     0.45119268     1.20213309     4.01668221    -4.35439879    -1.26012075
Ti      5.32581278     4.42134678     8.11621174    -4.01668221     4.35439879     1.26012075
Ti      0.91082544     0.45119089     5.86126796     8.43950605    -1.74384365     2.04944457
Ti      6.46518733     4.42134856     3.45707677    -8.43950605     1.74384365    -2.04944457
O       2.41680075     1.71570393     4.75507994    -0.64506971     0.65323425    -1.32312000
O       4.95921193     3.15683539     4.56326479     0.64506971    -0.65323425     1.32312000
O       1.74294182     1.71572361     0.09593760     1.81386587    -0.37327907    -1.18273412
O       5.63307093     3.15681579     9.22240688    -1.81386587     0.37327907     1.18273412
O       3.80441585     0.72056568     0.09590732     0.64498255    -0.65319671    -1.32298965
O       3.57159684     4.15197369     9.22243710    -0.64498255     0.65319671     1.32298965
O       4.47827484     0.72054603     4.75511016    -1.81365401     0.37301758    -1.18287681
O       2.89773780     4.15199334     4.56323452     1.81365401    -0.37301758     1.18287681
O       1.58889973     2.96375469     2.51711736     0.27579720    -2.13852125    -1.84127873
O       5.78711291     1.90878463     6.80122737    -0.27579720     2.13852125     1.84127873
O       3.62204083     1.90873929     2.14208462     2.32763444    -1.91919167    -3.08596540
O       3.75397186     2.96380002     7.17625991    -2.32763444     1.91919167     3.08596540
O       0.43410364     0.52748493     2.14205485     0.27560462    -2.13853487     1.84125147
O       6.94190899     4.34505439     7.17628968    -0.27560462     2.13853487    -1.84125147
O       2.59917577     0.52753026     6.80125703    -2.32759433     1.91928834    -3.08610912
O       4.77683692     4.34500905     2.51708760     2.32759433    -1.91928834     3.08610912
