# total energy = -19073.73029459 eV

CRYSTAL
PRIMVEC
        5.17600016     0.00000000     0.00000000
        0.00000000     5.50899976     0.00000000
        0.00000000     0.00000000     9.26300011
PRIMCOORD
22 1
Ti      1.87607999     3.52070901     3.40068499     0.77379667    -0.01419044    -0.43015292
Ti      3.55257998     2.11260502     5.88963002     1.64730589     0.59762204    -1.23208209
Ti      4.38846302     2.21293401     1.40080902     0.01298716     1.20172815    -2.53119621
Ti      0.63873499     3.18850402     7.90393799    -0.65280076    -2.05722422     2.83078692
Ti      1.80910499     0.51458498     1.23904001    -0.31914704     2.16715718    -1.80834160
Ti      3.20972800     5.11592902     8.13397002     0.69325709    -0.33134179     1.07813415
Ti      0.84311499     5.49908298     6.07836199    -1.03289994     1.17154699    -1.22303026
Ti      4.41847102     5.03433698     3.27358001     0.28132996    -0.23867097     2.03419818
O       3.62535201     3.30958702     4.32534302    -0.57865346     0.11893105     1.23672705
O       0.97207300     1.82743098     0.11430901    -0.58311279     0.63153799    -0.22739410
O       4.40314599     3.65679699     9.01759299    -1.70929084     0.82962896    -0.37707556
O       3.52679799     0.94099902     0.15007901    -0.27831945    -0.67088540    -0.30748708
O       1.74551000     4.65005698     9.24802201     0.17105787    -0.58074429    -1.72833912
O       4.40702698     0.71024398     4.91961098    -0.78506633    -0.29897441    -0.32984206
O       1.19187799     5.11388099     4.25186099    -0.22639986    -1.35697296     1.27768242
O       0.18216599     3.74333203     2.31049202     0.15994273    -1.77367180     0.21889146
O       4.98189900     1.63141399     7.05601998     0.23209563     0.32564371    -0.42563909
O       2.51217200     2.20242100     2.12752999     1.51763560    -0.21245933     0.54467504
O       1.87380802     3.86492002     6.69366300     0.82342258     0.59733896    -0.44294236
O       0.14711202     0.79658200     2.15411897    -0.53462253     0.21386881     1.12626907
O       2.34714902     0.97779203     6.68440298    -0.32975696    -0.82468987     0.95298231
O       2.76480301     4.82236201     2.39716299     0.71723855     0.50482087    -0.23682466
