# total energy = -4982.18651157 eV

CRYSTAL
PRIMVEC
        2.70586046     0.00000000     0.00000000
        1.04361312     4.10922602     0.00000000
       -0.00000671    -0.00005556     4.27371501
PRIMCOORD
6 1
Ti      1.87473333     2.05458515     2.13685755     0.00000000     0.00000000     0.00000000
Ti      0.00000000     0.00000000     0.00000000     0.00000000     0.00000000     0.00000000
O       1.55631367     0.80081675     0.83288413    -6.13248826     2.84701058     3.34730374
O       2.19315294     3.30835355     3.44083098     6.13248826    -2.84701058    -3.34730374
O       0.31841681     1.25374591     2.96974255     6.13285645    -2.84867049     3.34899604
O       0.72518949     2.85542447     1.30397256    -6.13285645     2.84867049    -3.34899604
