# total energy = -19939.78184252 eV

CRYSTAL
PRIMVEC
        5.18092806     0.00000000     0.00000000
        0.00002409     4.51151542     0.00000000
        0.00000000     0.00000000     8.51489647
PRIMCOORD
24 1
Ti      1.87785150     2.67351977     3.15896597    -0.80345512     2.23348318    -3.86543058
Ti      3.30310070     1.83799546     5.35593084     0.80345512    -2.23348318     3.86543058
Ti      4.46822577     1.83799692     1.09844841    -0.80147872    -2.23367421     3.86747024
Ti      0.71272644     2.67351845     7.41644848     0.80147872     2.23367421    -3.86747024
Ti      1.87783965     0.41776215     1.09848256    -0.80307229     2.23379068     3.86514390
Ti      3.30311256     4.09375322     7.41641434     0.80307229    -2.23379068    -3.86514390
Ti      0.71271458     0.41776050     5.35589669     0.80119461     2.23362227     3.86712519
Ti      4.46823762     4.09375482     3.15900011    -0.80119461    -2.23362227    -3.86712519
O       1.63980494     1.58858121     4.34508662    -0.12194670    -2.72494793     2.29389847
O       3.54114726     2.92293402     4.16981018     0.12194670     2.72494793    -2.29389847
O       0.95070633     1.58859944     0.08766564     0.12262058    -2.72599051     2.29463278
O       4.23024592     2.92291584     8.42723092    -0.12262058     2.72599051    -2.29463278
O       3.54113541     0.66717626     0.08763800     0.12267175     2.72520941     2.29367992
O       1.63981679     3.84433896     8.42725856    -0.12267175    -2.72520941    -2.29367992
O       4.23023402     0.66715808     4.34511426    -0.12196907     2.72537010     2.29432579
O       0.95071809     3.84435720     4.16978254     0.12196907    -2.72537010    -2.29432579
O       0.18824966     2.74415944     2.30008605     1.97696695    -0.65754934     0.69220396
O       4.99270254     1.76735578     6.21481075    -1.97696695     0.65754934    -0.69220396
O       2.77871888     1.76731386     1.95738944     1.97794088     0.65733259    -0.69179464
O       2.40223333     2.74420137     6.55750722    -1.97794088    -0.65733259     0.69179464
O       0.18823776     0.48840168     1.95736223     1.97730556    -0.65724903    -0.69232558
O       4.99271444     4.02311354     6.55753442    -1.97730556     0.65724903     0.69232558
O       2.40222143     0.48844361     6.21483791    -1.97735081    -0.65728631    -0.69174399
O       2.77873078     4.02307161     2.30005884     1.97735081     0.65728631     0.69174399
