# total energy = -19072.47651088 eV

CRYSTAL
PRIMVEC
        7.60600008     0.00000000     0.00000000
        0.00000000     7.60600008     0.00000000
       -1.89786986    -1.89786986     4.85670466
PRIMCOORD
22 1
Ti      3.51763798     6.93981202     1.21936102    -2.46869241    -0.92201645     0.86399871
Ti      3.91157599     3.02472001     1.27748198     0.91751444     0.94551994    -1.38770048
Ti     -0.33503498     6.41528602     1.01887698     2.20633026     1.03796656    -0.84061786
Ti      0.27964202     2.65646800     1.25396201    -0.19681236    -0.76773246    -0.19734767
Ti      5.84024122     2.69931923     3.38525784     0.37595944     1.67898627     0.96541848
Ti      5.54638121    -1.20901576     3.67683080     0.85869838    -0.28065813     0.88903587
Ti      2.02942825     3.25664824     3.75429383    -0.03560285    -2.01786422    -0.08445357
Ti      1.49660021    -0.63004875     3.85020980     0.58751220     1.91734382    -2.66968462
O       3.60045401     4.94286303     0.80131501    -0.19582969    -0.05311361    -0.77653592
O       3.98022801     1.10357799     0.72339599     0.54885000     1.46637112     2.28850069
O       0.10242802     4.29609201     0.50663901     0.33697868     0.62227482    -0.44261712
O       7.22575400     0.76171498     0.83372601    -0.27111779     0.11213948     0.13693135
O       5.97195122     4.55660724     4.04165681    -0.96221977     0.62433273     0.54552582
O      -0.33305580    -0.61833377     3.89368282    -1.25820142     0.72638525    -0.78012750
O       1.70313221     5.17740221     4.22451380     0.44800049    -3.85996364    -2.12437812
O       2.15279820     1.20791825     4.07481183    -0.76525597    -0.45292724     0.27429130
O       4.02119522     3.23601922     3.26564880    -1.18926395    -0.07238944     0.28639015
O       0.21832022     3.18211823     3.04752681    -0.44783337    -1.04877111     0.63552860
O       5.15999800     6.49382598     1.76417699     3.27599056     0.05425698     1.51353623
O       5.82572002     2.95400002     1.49761199    -0.05528439    -0.72078744     0.63282868
O       1.44138199     6.57248802     1.77737102     0.66742700     0.51540867     0.45584725
O       2.22221102     2.53744503     1.75960903    -2.37714773     0.49523785    -0.18437028
