# total energy = -19915.02695465 eV

CRYSTAL
PRIMVEC
        6.41923436     0.00000000     0.00000000
        2.92628978     6.17358392     0.00000000
        0.00000000     0.00000000    11.80648901
PRIMCOORD
24 1
Ti      4.06078026     3.65846008     4.38012319     0.07081566    -2.39607543     0.51035260
Ti      5.28474367     2.51512376     7.42636589    -0.07081566     2.39607543    -0.51035260
Ti      6.72834900     2.51512585     1.52307419    -0.71534004    -1.27936341     0.42681922
Ti      2.61717504     3.65845823    10.28341507     0.71534004     1.27936341    -0.42681922
Ti      2.59763552     0.57166822     1.52312151     0.07081566    -2.39607543    -0.51035260
Ti      6.74788845     5.60191581    10.28336775    -0.07081566     2.39607543     0.51035260
Ti      1.15403014     0.57166594     7.42631857     0.71534004     1.27936341     0.42681922
Ti      8.19149389     5.60191807     4.38017057    -0.71534004    -1.27936341    -0.42681922
O       3.06212452     2.17382382     6.02476097     1.81083788     2.07973449    -0.90075599
O       6.28339941     3.99976002     5.78172816    -1.81083788    -2.07973449     0.90075599
O       2.20833467     2.17384876     0.12155444     0.06900818    -1.06221361     1.72573922
O       7.13718935     3.99973519    11.68493438    -0.06900818     1.06221361    -1.72573922
O       4.82025464     0.91296803     0.12151609    -1.81083788    -2.07973449    -0.90075599
O       4.52526930     5.26061587    11.68497267     1.81083788     2.07973449     0.90075599
O       5.67404457     0.91294314     6.02479926    -0.06900818     1.06221361     1.72573922
O       3.67147931     5.26064078     5.78168981     0.06900818    -1.06221361    -1.72573922
O       2.01316091     3.75512374     3.18922724     0.66104115     2.97003020     2.78210512
O       7.33236295     2.41846011     8.61726190    -0.66104115    -2.97003020    -2.78210512
O       4.58918262     2.41840266     2.71405485     0.68154622     2.09950423     1.70804000
O       4.75634130     3.75518118     9.09243403    -0.68154622    -2.09950423    -1.70804000
O       0.55001613     0.66833169     2.71401714     0.66104115     2.97003020    -2.78210512
O       8.79550773     5.50525217     9.09247174    -0.66104115    -2.97003020     2.78210512
O       3.29319652     0.66838913     8.61729949    -0.68154622    -2.09950423     1.70804000
O       6.05232740     5.50519471     3.18918952     0.68154622     2.09950423    -1.70804000
