# total energy = -19937.26516226 eV

CRYSTAL
PRIMVEC
        5.09294627     0.00000000     0.00000000
        2.32168446     4.89805006     0.00000000
        0.00000000     0.00000000     9.36713177
PRIMCOORD
24 1
Ti      3.22177607     2.90257990     3.47513906     3.85517907    -4.31011075     1.24739302
Ti      4.19285448     1.99547009     5.89199277    -3.85517907     4.31011075    -1.24739302
Ti      5.33819425     1.99547175     1.20838944    -8.11453648     1.59190246     1.97635580
Ti      2.07643640     2.90257843     8.15874254     8.11453648    -1.59190246    -1.97635580
Ti      2.06093397     0.45355495     1.20842698     3.85517907    -4.31011075    -1.24739302
Ti      5.35369662     4.44449519     8.15870499    -3.85517907     4.31011075     1.24739302
Ti      0.91559416     0.45355314     5.89195523     8.11453648    -1.59190246     1.97635580
Ti      6.49903647     4.44449698     3.47517665    -8.11453648     1.59190246    -1.97635580
O       2.42945416     1.72468667     4.77997565    -0.50371683     0.74900042    -1.31195421
O       4.98517639     3.17336332     4.58715623     0.50371683    -0.74900042     1.31195421
O       1.75206717     1.72470645     0.09643989     1.74401823    -0.42574013    -1.02625261
O       5.66256345     3.17334362     9.27069174    -1.74401823     0.42574013     1.02625261
O       3.82433426     0.72433827     0.09640946     0.50371683    -0.74900042    -1.31195421
O       3.59029630     4.17371177     9.27072211    -0.50371683     0.74900042     1.31195421
O       4.50172131     0.72431853     4.78000603    -1.74401823     0.42574013    -1.02625261
O       2.91290920     4.17373153     4.58712580     1.74401823    -0.42574013     1.02625261
O       1.59721858     2.97927173     2.53029599     0.29994346    -1.87106728    -1.60118080
O       5.81741193     1.91877827     6.83683589    -0.29994346     1.87106728     1.60118080
O       3.64100439     1.91873269     2.15329972     2.27484530    -1.72288813    -2.86588326
O       3.77362616     2.97931730     7.21383195    -2.27484530     1.72288813     2.86588326
O       0.43637643     0.53024663     2.15326980     0.29994346    -1.87106728     1.60118080
O       6.97825407     4.36780337     7.21386188    -0.29994346     1.87106728    -1.60118080
O       2.61278402     0.53029220     6.83686571    -2.27484530     1.72288813    -2.86588326
O       4.80184653     4.36775779     2.53026607     2.27484530    -1.72288813     2.86588326
