# total energy = -4989.68895266 eV

CRYSTAL
PRIMVEC
        3.87107150     0.00000000     0.00000000
        0.95287053     3.75196379     0.00000000
       -2.41200626    -1.87600931     4.98001239
PRIMCOORD
6 1
Ti      0.71452719     2.81411653     1.24500302     0.00020543    -0.00020543     0.00000000
Ti      1.69740875    -0.93816190     3.73500905    -0.00020543     0.00020543     0.00000000
O       0.23825822     0.93798561     0.81120327    -0.00036175    -0.00041266    -0.77480454
O       2.17367755     0.93796893     4.16880880     0.00036175     0.00041266     0.77480454
O      -0.23823056    -0.93796409     3.30120930    -0.00041266    -0.00036175    -0.77480454
O       2.65016633     2.81391857     1.67880277     0.00041266     0.00036175     0.77480454
