# total energy = -19949.65582630 eV

CRYSTAL
PRIMVEC
        5.63331730     0.00000000     0.00000000
        1.47585735     5.81106720     0.00000000
        0.00000000     0.00000000    10.16333750
PRIMCOORD
24 1
Ti      2.91639834     3.44363321     3.77052591     0.41817106    -2.04456539     0.92914123
Ti      4.19277648     2.36743437     6.39281215    -0.41817106     2.04456539    -0.92914123
Ti      5.45963857     2.36743638     1.31110254    -1.00050403    -0.53295414     0.26715237
Ti      1.64953627     3.44363143     8.85223564     1.00050403     0.53295414    -0.26715237
Ti      2.17846978     0.53809965     1.31114329     0.41817106    -2.04456539    -0.92914123
Ti      4.93070506     5.27296815     8.85219489    -0.41817106     2.04456539     0.92914123
Ti      0.91160760     0.53809743     6.39277140     1.00050403     0.53295414     0.26715237
Ti      6.19756723     5.27297032     3.77056666    -1.00050403    -0.53295414    -0.26715237
O       2.30265496     2.04617567     5.18627357     1.36184803     1.70863135    -0.68504190
O       4.80651979     3.76489191     4.97706450    -1.36184803    -1.70863135     0.68504190
O       1.55339155     2.04619912     0.10463728    -0.34909012    -0.16289616     0.84201166
O       5.55578334     3.76486856    10.05870050     0.34909012     0.16289616    -0.84201166
O       4.06859122     0.85935819     0.10460431    -1.36184803    -1.70863135    -0.68504190
O       3.04058359     4.95170939    10.05873347     1.36184803     1.70863135     0.68504190
O       4.81785475     0.85933478     5.18630655     0.34909012     0.16289616     0.84201166
O       2.29132001     4.95173286     4.97703152    -0.34909012    -0.16289616    -0.84201166
O       1.10237155     3.53462061     2.74537117     0.28241548     1.10400125     1.08405489
O       6.00680321     2.27644697     7.41796690    -0.28241548    -1.10400125    -1.08405489
O       3.59948486     2.27639278     2.33633021     0.93173496     0.98990774     0.20301232
O       3.50968997     3.53467485     7.82700769    -0.93173496    -0.98990774    -0.20301232
O       0.36444297     0.62908689     2.33629775     0.28241548     1.10400125    -1.08405489
O       6.74473185     5.18198075     7.82704015    -0.28241548    -1.10400125     1.08405489
O       2.77176138     0.62914107     7.41799930    -0.93173496    -0.98990774     0.20301232
O       4.33741343     5.18192651     2.74533871     0.93173496     0.98990774    -0.20301232
