# total energy = -19931.90898371 eV

CRYSTAL
PRIMVEC
        7.16582923     0.00000000     0.00000000
        0.00002522     4.10663583     0.00000000
        0.00000000     0.00000000    10.84130069
PRIMCOORD
24 1
Ti      2.59728347     2.43358872     4.02204538     0.16914857     0.44848592     1.23330439
Ti      4.56857114     1.67304745     6.81925576    -0.16914857    -0.44848592    -1.23330439
Ti      6.18007528     1.67304890     1.39856191     0.17025877    -0.44839696    -1.23239011
Ti      0.98577933     2.43358738     9.44273935    -0.17025877     0.44839696     1.23239011
Ti      2.59727098     0.38027086     1.39860536     0.16914857     0.44848592    -1.23330439
Ti      4.56858364     3.72636542     9.44269590    -0.16914857    -0.44848592     1.23330439
Ti      0.98576684     0.38026924     6.81921231    -0.17025877     0.44839696    -1.23239011
Ti      6.18008778     3.72636699     4.02208883     0.17025877    -0.44839696     1.23239011
O       2.26803914     1.44601635     5.53223294     1.89100388     0.30390528    -0.34357947
O       4.89781547     2.66061976     5.30906821    -1.89100388    -0.30390528     0.34357947
O       1.31493524     1.44603290     0.11161725    -1.88974404     0.30388857    -0.34433460
O       5.85091943     2.66060327    10.72968355     1.88974404    -0.30388857     0.34433460
O       4.89780297     0.60730184     0.11158208    -1.89100388    -0.30390528    -0.34357947
O       2.26805164     3.49933432    10.72971872     1.89100388     0.30390528     0.34357947
O       5.85090693     0.60728530     5.53226810     1.88974404    -0.30388857    -0.34433460
O       1.31494757     3.49935087     5.30903298    -1.88974404     0.30388857     0.34433460
O       0.26036648     2.49788874     2.92850588    -1.18811338     0.47127413     0.83909011
O       6.90548814     1.60874743     7.91279526     1.18811338    -0.47127413    -0.83909011
O       3.84328993     1.60870903     2.49217912    -1.18695767    -0.47113323    -0.83868671
O       3.32256468     2.49792713     8.34912179     1.18695767     0.47113323     0.83868671
O       0.26035398     0.44457076     2.49214452    -1.18811338     0.47127413    -0.83909011
O       6.90550063     3.66206541     8.34915640     1.18811338    -0.47127413     0.83909011
O       3.32255219     0.44460916     7.91282981     1.18695767     0.47113323    -0.83868671
O       3.84330243     3.66202701     2.92847128    -1.18695767    -0.47113323     0.83868671
