# total energy = -19072.79446747 eV

CRYSTAL
PRIMVEC
        5.93400000     0.00000000     0.00000000
        0.00000000     9.29699974     0.00000000
        0.00000000     0.00000000     4.64899994
PRIMCOORD
22 1
Ti      4.43541898     7.00569702     2.42400101     0.86098898    -0.54718084     0.28874630
Ti      4.39824502     2.43660702     2.13471002     0.72849484    -0.34406001     0.50526001
Ti      1.53233100     7.24428500     2.67686302    -0.08906742    -1.48817666    -0.40348363
Ti      1.64202103     2.41176998     2.04661498    -1.38559372     1.55593142     1.34808157
Ti      2.96961001     4.64230501     4.41287698    -1.15395935    -0.46543181     0.28900496
Ti      3.00829699     0.08311200     0.13475499     1.72302054    -0.37427537    -0.36212896
Ti      5.72394902     4.56910699     4.49334399     0.80580331    -0.17094963    -0.46504743
Ti      0.03082399     9.10225098     0.38580599    -2.23967671     0.03884476     0.83262070
O       4.32501101     5.40504099     0.88764499     0.59951874     0.14739523     0.00545768
O       4.35604599     0.56342200     1.40133999     1.63566625     0.81478007    -1.75339890
O       1.54912999     0.66924999     1.17931299    -0.95359398     1.04415443     0.26799338
O       4.50441501     8.34645400     3.85392801     0.11333118     1.12280348     0.28209923
O       4.32036902     4.06685502     3.29674701     1.02610708    -2.11452976    -0.31906579
O       1.47082398     8.27414801     4.13351299     0.97887847     0.66078610    -1.39641652
O       1.47603400     3.93220401     3.31811498    -0.20629948    -0.99148382     0.30738810
O       3.01727401     6.15550201     3.32432900    -1.47413997     0.25854200     0.19653391
O       3.01000502     1.65364398     3.10528899    -0.92402268    -1.42862115     2.61033325
O       0.07203902     6.10907099     3.17796699     0.15208826    -1.04507977     1.53381041
O       3.02720201     7.87155398     1.65724302    -1.46984083     0.56114759    -1.87162161
O       3.04220202     3.02057602     1.04339000    -0.42702208     1.20826492    -1.73979082
O       0.06578499     7.55897798     1.36393700     0.48580858     0.70486614    -0.00577624
O       5.79186601     2.85967100     0.94966297     1.21350972     0.85227319    -0.15060011
