# total energy = -19953.94562943 eV

CRYSTAL
PRIMVEC
        5.05955351     0.00000000     0.00000000
        1.32553854     5.21919924     0.00000000
        0.00000000     0.00000000     9.12818275
PRIMCOORD
24 1
Ti      2.61935777     3.09289279     3.38649087     1.73373459    -1.71195810     0.86627285
Ti      3.76573443     2.12630679     5.74169240    -1.73373459     1.71195810    -0.86627285
Ti      4.90356427     2.12630860     1.17756432    -3.13946776    -0.28733940     1.35957132
Ti      1.48152795     3.09289119     7.95061905     3.13946776     0.28733940    -1.35957132
Ti      1.95658860     0.48329321     1.17760092     1.73331524    -1.70742216    -0.86600854
Ti      4.42850362     4.73590658     7.95058245    -1.73331524     1.70742216     0.86600854
Ti      0.81875868     0.48329121     5.74165580     3.13872497     0.29240473     1.35900053
Ti      5.56633353     4.73590853     3.38652747    -3.13872497    -0.29240473    -1.35900053
O       2.06812529     1.83776889     4.65804200    -0.28796880     0.36452728    -0.77253708
O       4.31696685     3.38143070     4.47014126     0.28796880    -0.36452728     0.77253708
O       1.39517574     1.83778995     0.09397978     0.77692364    -0.76247327     0.14376123
O       4.98991651     3.38140973     9.03420322    -0.77692364     0.76247327    -0.14376123
O       3.65419767     0.77183096     0.09395017     0.28850205    -0.36409045    -0.77232368
O       2.73089452     4.44736862     9.03423284    -0.28850205     0.36409045     0.77232368
O       4.32714733     0.77180994     4.65807162    -0.77642099     0.76240282     0.14425437
O       2.05794482     4.44738970     4.47011164     0.77642099    -0.76240282    -0.14425437
O       0.99009296     3.17461296     2.46575003    -0.28351848    -0.49852192    -0.79052118
O       5.39499918     2.04458663     6.66243323     0.28351848     0.49852192     0.79052118
O       3.23287066     2.04453796     2.09837065     1.14135477    -0.92601374    -1.28575569
O       3.15222154     3.17466167     7.02981246    -1.14135477     0.92601374     1.28575569
O       0.32732378     0.56501322     2.09834150    -0.28311327    -0.49872735     0.79153908
O       6.05776842     4.65418641     7.02984161     0.28311327     0.49872735    -0.79153908
O       2.48945235     0.56506189     6.66246234    -1.14118636     0.92549027    -1.28665840
O       3.89563984     4.65413770     2.46572088     1.14118636    -0.92549027     1.28665840
