# total energy = -19948.91946987 eV

CRYSTAL
PRIMVEC
        5.70932005     0.00000000     0.00000000
        0.90639899     6.00846072     0.00000000
        0.00000000     0.00000000    10.24744675
PRIMCOORD
24 1
Ti      2.60648510     3.56060820     3.80172969     0.15696796    -1.47424282     0.80354897
Ti      4.00923388     2.44785235     6.44571729    -0.15696796     1.47424282    -0.80354897
Ti      5.29318783     2.44785438     1.32195282    -0.29936368    -0.14248879    -0.13254402
Ti      1.32253117     3.56060640     8.92549427     0.29936368     0.14248879     0.13254402
Ti      2.15328573     0.55637795     1.32199392     0.15696796    -1.47424282    -0.80354897
Ti      4.46243326     5.45208278     8.92545318    -0.15696796     1.47424282     0.80354897
Ti      0.86933176     0.55637574     6.44567620     0.29936368     0.14248879    -0.13254402
Ti      5.74638723     5.45208498     3.80177078    -0.29936368    -0.14248879     0.13254402
O       2.12619431     2.11568109     5.22919369     1.36253477     1.51895766    -0.41699169
O       4.48952466     3.89277946     5.01825324    -1.36253477    -1.51895766     0.41699169
O       1.36681971     2.11570538     0.10550320    -0.72273711     0.34943593     0.55907631
O       5.24889933     3.89275523    10.14194349     0.72273711    -0.34943593    -0.55907631
O       4.03632528     0.88854903     0.10546996    -1.36253477    -1.51895766    -0.41699169
O       2.57939370     5.11991151    10.14197673     1.36253477     1.51895766     0.41699169
O       4.79569995     0.88852480     5.22922698     0.72273711    -0.34943593     0.55907631
O       1.82001897     5.11993581     5.01822000    -0.72273711     0.34943593    -0.55907631
O       0.75875604     3.65468640     2.76809107     0.27902779     0.63730395     0.81664283
O       5.85696293     2.35377409     7.47935591    -0.27902779    -0.63730395    -0.81664283
O       3.41717140     2.35371821     2.35566502     0.65583698     0.86990737     0.14937472
O       3.19854757     3.65474228     7.89178179    -0.65583698    -0.86990737    -0.14937472
O       0.30555665     0.65045598     2.35563225     0.27902779     0.63730395    -0.81664283
O       6.31016232     5.35800451     7.89181450    -0.27902779    -0.63730395     0.81664283
O       2.74534819     0.65051186     7.47938857    -0.65583698    -0.86990737     0.14937472
O       3.87037078     5.35794863     2.76805835     0.65583698     0.86990737    -0.14937472
