# total energy = -19517.72071421 eV

CRYSTAL
PRIMVEC
        7.60600008     0.00000000     0.00000000
        0.00000000     7.60600008     0.00000000
       -1.89786986    -1.89786986     4.85670466
PRIMCOORD
23 1
Ti      3.83047000     6.66753101     1.28149902    -0.47330813    -1.65266870     0.19329098
Ti      3.61542200     2.72624298     1.26797098     1.57078803     0.87442994    -0.05219110
Ti     -0.02536198     6.69888502     1.16906002     0.80488286     0.67752579    -1.21171817
Ti     -0.00583799     2.96131500     1.02419902    -0.86666469    -0.21115758     2.43450444
Ti      5.63320523     2.91200224     3.49507180     0.18920704     2.67314764     0.58198433
Ti      5.77988925    -0.76070976     3.63277780    -0.76046909    -2.94099909     0.12785998
Ti      1.81738222     2.70669824     3.76515879     1.46833519    -0.08244657     0.85367984
Ti      1.88673624    -1.11321177     3.67247583     1.08767217     0.46145277    -0.65042069
O       3.88897198     4.66390798     0.79089699    -1.28231349    -0.53724249     1.20426866
O       4.03261598     0.85571999     0.75375600    -1.10363539     0.64004500     1.10689657
O      -0.01079500     4.87992501     0.78866201     0.26484404    -0.88347148    -0.20671137
O      -0.19547501     0.99456499     0.72367100     0.60583698     0.68238234    -0.43750808
O       5.98434820     4.86891220     3.88826680    -0.30435548    -1.29584316     1.07902066
O       5.82437321     1.09438623     4.03934679     0.12354824    -0.27449365    -1.21752141
O       1.88916823     4.61623922     4.07802981    -0.75268996     0.61855751    -0.20285780
O       2.14633224     0.83474224     4.17681180    -1.03735721     0.51514591    -0.28031900
O       3.81822124     2.81028522     3.23114380    -0.82637497    -0.14327298    -0.32411184
O       3.85378624    -1.17366979     3.30195481     0.05128684     1.00295635    -1.41557562
O       0.07487721    -0.68760477     3.44763281    -0.65879529    -0.47483562    -1.40613247
O       5.69253399     6.63927601     1.44927102     1.05697987     0.15484166     1.71155907
O       5.74307402     2.95507901     1.65933200     0.89802033    -0.16772958    -0.28713242
O       1.87888198     6.67406698     1.61348398     0.14609913     0.05219521     0.71321477
O       1.73673301     2.68132700     1.86690501    -0.20153702     0.31148001    -2.31407906
