# total energy = -19069.59132682 eV

CRYSTAL
PRIMVEC
        7.60600008     0.00000000     0.00000000
        0.00000000     7.60600008     0.00000000
       -1.89786986    -1.89786986     4.85670466
PRIMCOORD
22 1
Ti      3.96008001     6.48184001     1.24097902    -0.94764341     1.37498791     1.17585719
Ti      3.88401798     2.65058302     0.94397501    -1.11634795    -0.08956775     0.77488861
Ti     -0.22077301     6.50903602     1.05860501    -0.82068384     2.72688140    -0.07448694
Ti     -0.12063500     3.06662402     1.21583903     0.63027918    -0.08540951    -0.32468494
Ti      5.78193124     2.74250724     3.46305584    -3.09011311     1.00503071     1.06059845
Ti     -1.17710177    -0.47776080     4.09691980    -2.02497280    -0.96878175     0.06766169
Ti      1.89186423     2.95445125     3.71906581    -0.34021004    -2.20318529     0.15872968
Ti      1.44851525    -0.95435879     3.86629483     3.00893461     0.01666281    -1.67778325
O       3.73080000     4.62669301     0.86013698     0.22801554     1.96420759    -1.43609920
O       4.31476202     0.78977800     0.99242902    -1.95176781     0.08417178    -0.78680208
O       0.37775202     4.84216102     0.96966201     0.94343349    -2.53993385    -0.00208979
O       7.08952600     0.84773698     0.61425398     2.85474704    -1.33780486     0.07898200
O       4.81874424     4.14044521     4.12442881     1.91086206     0.56042485     0.55363868
O       5.24153220     0.90087024     4.24683180     0.58254612     3.27986625    -3.65871149
O       2.10147923     4.69577323     4.19321482    -0.95892799     1.75107900     0.29439965
O       2.22278020     0.80845621     3.88919381    -1.11269878     0.85227679     0.55264520
O       3.36152424     3.04599823     2.72235379    -0.80932084    -1.40097432     0.32716503
O      -0.08529776     3.25551220     3.25250081     1.57580940    -0.98466500    -0.38221340
O       5.83741002     6.61387201     2.06960699    -0.63164649    -0.85701688     1.26796596
O       5.60434099     3.05957199     1.24402602     2.90763748     0.08419466     3.23135285
O       2.09265800    -0.79538902     2.05577699     0.21528086    -1.40489834    -0.31345333
O       1.89445799     2.50559300     0.47325703    -1.05321269    -1.82754620    -0.88756005
