# total energy = -19870.61098738 eV

CRYSTAL
PRIMVEC
        6.79188108     0.00000000     0.00000000
        0.00002138     2.74188864     0.00000000
        0.00000000     0.00000000    10.51213852
PRIMCOORD
24 1
Ti      2.46174299     1.62484064     3.89992843    -1.61684499     0.81268359    -2.83339402
Ti      4.33015967     1.11704791     6.61221019     1.61684499    -0.81268359     2.83339402
Ti      5.85756761     1.11704885     1.35609888    -1.61374990    -0.81299829     2.83658887
Ti      0.93433505     1.62483984     9.15603983     1.61374990     0.81299829    -2.83658887
Ti      2.46173239     0.25389636     1.35614102    -1.61684499     0.81268359     2.83339402
Ti      4.33017027     2.48799228     9.15599769     1.61684499    -0.81268359    -2.83339402
Ti      0.93432445     0.25389538     6.61216804     1.61374990     0.81299829     2.83658887
Ti      5.85757821     2.48799327     3.89997057    -1.61374990    -0.81299829    -2.83658887
O       2.14968087     0.96546558     5.36426381    10.29748872    -2.26189079     6.79136249
O       4.64222184     1.77642297     5.14787481   -10.29748872     2.26189079    -6.79136249
O       1.24631460     0.96547663     0.10822836   -10.29710846    -2.26285084     6.79187337
O       5.54558816     1.77641192    10.40390997    10.29710846     2.26285084    -6.79187337
O       4.64221124     0.40547864     0.10819426   -10.29748872     2.26189079     6.79136249
O       2.14969141     2.33640991    10.40394407    10.29748872    -2.26189079    -6.79136249
O       5.54557756     0.40546760     5.36429796    10.29710846     2.26285084     6.79187337
O       1.24632505     2.33642100     5.14784066   -10.29710846    -2.26285084    -6.79187337
O       0.24677777     1.66777210     2.83959086     4.53993660    -1.69614556     2.91781828
O       6.54512488     1.07411645     7.67254776    -4.53993660     1.69614556    -2.91781828
O       3.64272726     1.07409097     2.41651183     4.54277150     1.69659062    -2.91666436
O       3.14917545     1.66779763     8.09562659    -4.54277150    -1.69659062     2.91666436
O       0.24676718     0.29682777     2.41647826     4.53993660    -1.69614556    -2.91781828
O       6.54513548     2.44506078     8.09566016    -4.53993660     1.69614556     2.91781828
O       3.14916485     0.29685326     7.67258124    -4.54277150    -1.69659062    -2.91666436
O       3.64273785     2.44503529     2.83955733     4.54277150     1.69659062     2.91666436
