# total energy = -19517.92065158 eV

CRYSTAL
PRIMVEC
        5.17600016     0.00000000     0.00000000
        0.00000000     5.50899976     0.00000000
        0.00000000     0.00000000     9.26300011
PRIMCOORD
23 1
Ti      1.85087601     3.25991802     3.38379302    -1.13054610     0.06413465     1.67411531
Ti      3.40959602     2.21822499     5.79677000    -0.64541295     0.12237967    -1.31786287
Ti      4.35940097     2.02422898     1.48215499     2.00682647    -0.34207538    -0.68506606
Ti      0.95580101     3.32544398     7.82972802    -0.43794593     0.27501095     1.82808871
Ti      1.84080900     0.45355301     1.28273402     0.30521243     0.33993673    -1.69620264
Ti      3.28808602     5.17886200     7.86857598     0.01507181     1.01571211     1.59987905
Ti      0.69345498     0.57737101     5.81758799    -0.24129426    -0.42450060    -2.40645755
Ti      4.36871100     4.87499001     3.43096499     1.19117505     0.06251485     1.61415022
O       1.74451800     1.96158799     4.75415598    -0.93341904    -0.24986504     0.48828121
O       3.42878298     3.66586799     4.54688800     0.62124612    -0.10860292     0.05452746
O       0.59138098     2.41280002     0.21701802     0.11666488    -0.18226274    -0.91172586
O       3.51071698     0.97611501     0.20182201    -1.05112393    -1.12916362    -1.48966687
O       1.60965702     4.75726400     9.10568100     0.86654436     0.68058283    -0.21497413
O       4.19673898     0.78452797     4.78568299     0.26304015     0.17459288    -0.28926490
O       0.94061299     4.70052398     4.41502401    -0.42043492     0.28270498     0.63324083
O       0.05478599     3.23276298     2.64537401     0.15224664     1.19089197     0.07618927
O       5.14869901     2.05089898     6.83412098    -1.09914058     0.46640086    -0.07824693
O       2.73239699     1.85705098     2.41310202    -0.24831621     0.72494440    -0.69509825
O       2.69136099     3.59799101     7.10251598    -0.24224789    -1.91184885     0.28747258
O       0.22337201     0.65256498     2.23603799    -0.81618466    -0.59330181    -0.36029576
O       5.05816900     4.80259798     7.14763802    -0.25899606    -0.23365577     0.47071851
O       2.36236202     0.65683100     6.68993902     1.03648946     0.65057804     1.06686037
O       2.69608099     4.75453800     2.32784998     0.95054568    -0.87510794     0.35133881
