# total energy = -4976.24377668 eV

CRYSTAL
PRIMVEC
        2.53662484     0.00000000     0.00000000
        0.00000000     3.97451083     0.00000000
        0.00000000    -0.00005158     3.97451083
PRIMCOORD
6 1
Ti      1.26831237     1.98722958     1.98725537     0.00000000     0.00000000     0.00000000
Ti      0.00000000     0.00000000     0.00000000     0.00000000     0.00000000     0.00000000
O       1.26831237     0.77456356     0.77457361    -0.00000000     3.09943747     3.09943747
O       1.26831237     3.19989560     3.19993713    -0.00000000    -3.09943747    -3.09943747
O       0.00000000     1.21264511     2.76182978     0.00000000    -3.09726129     3.09726129
O       0.00000000     2.76181405     1.21268095     0.00000000     3.09726129    -3.09726129
