# total energy = -4989.22259028 eV

CRYSTAL
PRIMVEC
        4.05161827     0.00000000     0.00000000
        0.20244571     4.04655735     0.00000000
       -2.12706796    -2.02331289     5.17238370
PRIMCOORD
6 1
Ti      0.15167061     3.03507167     1.29309578     0.00020260    -0.00020260     0.00000000
Ti      1.97532490    -1.01182770     3.87928763    -0.00020260     0.00020260     0.00000000
O       0.05065405     1.01163272     0.84253901    -0.00053428    -0.00151901    -0.78613977
O       2.07634128     1.01161114     4.32984446     0.00053428     0.00151901     0.78613977
O      -0.05063407    -1.01161371     3.42873086    -0.00151901    -0.00053428    -0.78613977
O       2.17762940     3.03485751     1.74365267     0.00151901     0.00053428     0.78613977
