# total energy = -39028.80588636 eV

CRYSTAL
PRIMVEC
        5.93200024     0.00000000     0.00000000
        0.00000000     9.29399984     0.00000000
        0.00000000     0.00000000     9.29399984
PRIMCOORD
46 1
Ti      4.37429800     7.03165703     6.98277899     0.63270964     0.15652522     1.60624150
Ti      4.34447198     6.61319101     2.32135301     2.81784115     1.28666303     0.84389345
Ti      4.38203701     2.25414797     6.97316998     3.38601891    -1.25251877     0.06771928
Ti      4.29488802     2.79388199     2.20963898     0.35047389    -1.03228262     0.08373032
Ti      1.40023200     7.04878300     6.96981901    -1.61301096     0.93329434     3.36346518
Ti      1.53905800     7.02956201     2.14045800    -2.43018370    -0.29650615     0.01750999
Ti      1.44119302     2.34644601     6.86430800    -1.32678357    -0.31788540     0.24277162
Ti      1.20414701     2.08319800     2.68933202     2.00738337     1.95498915    -0.62011612
Ti      3.12804801     4.83561700     4.83237500    -0.64279531    -1.77478123    -1.03072093
Ti      2.95724599     4.66808901     9.01656798    -1.17731166     0.81892340     0.66120133
Ti      2.92359302     9.00353101     4.73502199     2.64395995     0.72800916    -3.42758466
Ti      3.00320398     0.19394600     0.13573201    -0.02406348    -0.82197042     0.07875035
Ti      0.16029202     4.84180700     4.81381299     1.03847872    -1.14474554    -3.12396298
Ti      5.92812201     4.52339798     9.11900801     0.36294760     1.39746194     1.40101854
Ti      0.03957198     9.17924198     4.75156698    -2.11945471    -0.29891888    -1.49107378
Ti      0.07058097     9.23136197     0.08276999    -2.40825475    -0.66730719    -1.67289301
O       4.74738299     5.67812799     5.58857601    -3.83839362     1.91724329     1.67392222
O       4.25353298     5.13329799     1.07975199    -0.10178744    -0.86226759    -0.21267222
O       4.39490501     0.87543999     5.08367302     1.19569377     0.68460892     1.78292161
O       4.62527698     1.15750602     0.90661398    -0.41494638    -1.03268500    -1.04432644
O       1.48727002     5.94387498     5.58824998     1.03346096    -2.22623935    -1.44562103
O       1.48440399     5.25375302     0.70223202     1.03487146     2.08963787     1.96244021
O       1.70835202     1.00430402     5.25872702    -2.21001131     0.70148642     0.35004580
O       1.38863498     0.74506400     0.92761099     2.31133750     1.94953764     2.81600564
O       4.82867700     8.27072598     8.26437601    -2.38421030     1.28603311     0.82750060
O       4.46117398     8.13412702     3.65179399    -0.07244060     0.88694813     1.46755975
O       4.44991902     3.59376198     8.46617702    -0.06361246    -1.00169111    -0.17628390
O       4.48546999     3.82083300     4.07276899    -1.09185279    -0.26183533    -2.75919272
O       1.62156700     8.66238901     8.24161102     0.28135001    -1.12791792     1.23447579
O       1.48328097     8.28395901     3.66857801    -0.50994225     0.78506324    -0.54199775
O       1.38800102     3.88305900     8.14612897     0.90473503    -2.44030305    -1.15837188
O       1.51327802     3.75435802     4.12571101     2.27408528    -0.86972636    -1.69642504
O       2.80216600     6.07776503     7.87076900     1.58662681     0.27072338    -0.24527562
O       2.75738199     6.08251100     3.14665298     0.22680841    -1.62248445     1.51421012
O       2.99893802     1.50820300     7.78009998    -0.82593326    -2.11431842     1.85680023
O       3.09545000     1.46107299     2.74407498    -1.32130120     1.66102428     0.78638736
O       5.73248502     6.08312998     7.95865402     0.89347771    -1.15238558     0.16887089
O       0.07407100     6.03106598     3.17065101    -0.15651082    -1.44408042     0.96172355
O       0.08060999     1.35808198     7.94979998     0.66765737     1.61765335    -2.19216399
O       2.79831798     7.97865702     6.16035599     1.76593689    -0.08683056     0.17745941
O       3.13717700     7.85066598     1.27328100    -1.35393134     0.03379254    -0.16918302
O       3.25471801     3.35668999     6.33719200    -3.05289637     2.76932262    -2.81077730
O       5.89050502     7.97227599     6.12240700    -0.12116740     0.67625977    -0.90329238
O       5.72073803     7.45016701     1.40625399     2.59679459     2.72583393    -2.34250056
O       0.08324699     3.22818199     5.92802400    -0.14393915    -1.20589565     2.19230797
O       0.25575798     3.34702499     1.59976897    -0.60791469    -2.27545748     0.92550235
