# total energy = -4984.42091563 eV

CRYSTAL
PRIMVEC
        4.24906516     0.00000000     0.00000000
        1.81993664     3.83958141     0.00000000
       -3.03454113    -1.91981615     5.57260591
PRIMCOORD
6 1
Ti      1.36484515     2.87983384     1.39315142     0.00021597    -0.00021597    -0.00000000
Ti      1.66961582    -0.96006835     4.17945414    -0.00021597     0.00021597     0.00000000
O       0.45502830     0.95989031     0.90773190    -0.00064175    -0.00095594    -1.90109701
O       2.57943252     0.95987503     4.66487372     0.00064175     0.00095594     1.90109701
O      -0.45499001    -0.95986614     3.69403468    -0.00095594    -0.00064175    -1.90109701
O       3.48945075     2.87963143     1.87857094     0.00095594     0.00064175     1.90109701
