# total energy = -19926.04373191 eV

CRYSTAL
PRIMVEC
        6.45933902     0.00000000     0.00000000
        0.00002273     3.70175624     0.00000000
        0.00000000     0.00000000     9.77244006
PRIMCOORD
24 1
Ti      2.34121327     2.19365744     3.62550569    -0.53170176     1.92240812    -1.88267479
Ti      4.11814863     1.50809911     6.14693477     0.53170176    -1.92240812     1.88267479
Ti      5.57077209     1.50810042     1.26067552    -0.53089032    -1.92295679     1.88523612
Ti      0.88858982     2.19365623     8.51176505     0.53089032     1.92295679    -1.88523612
Ti      2.34120201     0.34277937     1.26071469    -0.53170176     1.92240812     1.88267479
Ti      4.11815990     3.35897728     8.51172588     0.53170176    -1.92240812    -1.88267479
Ti      0.88857856     0.34277791     6.14689561     0.53089032     1.92295679     1.88523612
Ti      5.57078335     3.35897869     3.62554486    -0.53089032    -1.92295679    -1.88523612
O       2.04442965     1.30345136     4.98680152     3.51319626    -1.80912553     3.19958018
O       4.41493225     2.39830513     4.78563895    -3.51319626     1.80912553    -3.19958018
O       1.18529374     1.30346628     0.10061273    -3.51370919    -1.80929316     3.19964343
O       5.27406822     2.39829027     9.67182743     3.51370919     1.80929316    -3.19964343
O       4.41492099     0.54742701     0.10058103    -3.51319626     1.80912553     3.19958018
O       2.04444091     3.15432953     9.67185913     3.51319626    -1.80912553    -3.19958018
O       5.27405695     0.54741210     4.98683322     3.51370919     1.80929316     3.19964343
O       1.18530485     3.15434445     4.78560720    -3.51370919    -1.80929316    -3.19964343
O       0.23469654     2.25161801     2.63977995     1.77107859    -0.32708738     1.66320277
O       6.22466536     1.45013853     7.13266052    -1.77107859     0.32708738    -1.66320277
O       3.46437402     1.45010392     2.24647132     1.77102588     0.32732598    -1.66425795
O       2.99498788     2.25165263     7.52596894    -1.77102588    -0.32732598     1.66425795
O       0.23468528     0.40073984     2.24644013     1.77107859    -0.32708738    -1.66320277
O       6.22467663     3.30101670     7.52600013    -1.77107859     0.32708738     1.66320277
O       2.99497662     0.40077446     7.13269166    -1.77102588    -0.32732598    -1.66425795
O       3.46438529     3.30098209     2.63974876     1.77102588     0.32732598     1.66425795
