# total energy = -19929.79040114 eV

CRYSTAL
PRIMVEC
        5.06829730     0.00000000     0.00000000
        2.53846913     4.75957807     0.00000000
        0.00000000     0.00000000     9.38697189
PRIMCOORD
24 1
Ti      3.34130848     2.82052156     3.48249964     4.76633286    -5.08223671     1.19523226
Ti      4.26545808     1.93905663     5.90447235    -4.76633286     5.08223671    -1.19523226
Ti      5.40525477     1.93905833     1.21094886   -10.03713949     2.47296584     2.14023129
Ti      2.20151195     2.82052009     8.17602318    10.03713949    -2.47296584    -2.14023129
Ti      2.07207411     0.44073268     1.21098651     4.76598448    -5.08245603    -1.19539758
Ti      5.53469255     4.31884569     8.17598558    -4.76598448     5.08245603     1.19539758
Ti      0.93227734     0.44073085     5.90443470    10.03626198    -2.47335305     2.14015416
Ti      6.67448931     4.31884747     3.48253724   -10.03626198     2.47335305    -2.14015416
O       2.49798628     1.67592839     4.79009992    -0.78584743     0.63535042    -1.48348697
O       5.10878035     3.08364984     4.59687207     0.78584743    -0.63535042     1.48348697
O       1.82387860     1.67594755     0.09664414     2.28418227    -0.01320930    -1.84885937
O       5.78288808     3.08363072     9.29032755    -2.28418227     0.01320930     1.84885937
O       3.83954588     0.70386078     0.09661368     0.78577287    -0.63562682    -1.48357258
O       3.76722073     4.05571740     9.29035801    -0.78577287     0.63562682     1.48357258
O       4.51365362     0.70384166     4.79013034    -2.28421029     0.01308178    -1.84873853
O       3.09311296     4.05573658     4.59684160     2.28421029    -0.01308178     1.84873853
O       1.72818376     2.89504516     2.53565529     0.40037130    -2.89850697    -2.34791891
O       5.87858286     1.86453307     6.85131665    -0.40037130     2.89850697     2.34791891
O       3.71270645     1.86448862     2.15786051     2.47094161    -2.14083421    -3.57312535
O       3.89406017     2.89508961     7.22911128    -2.47094161     2.14083421     3.57312535
O       0.45894930     0.51525610     2.15783055     0.40039624    -2.89886744     2.34788831
O       7.14781731     4.24432209     7.22914124    -0.40039624     2.89886744    -2.34788831
O       2.62482571     0.51530055     6.85134656    -2.47083363     2.14066323    -3.57272143
O       4.98194090     4.24427763     2.53562533     2.47083363    -2.14066323     3.57272143
