# total energy = -19518.28503966 eV

CRYSTAL
PRIMVEC
        7.60600008     0.00000000     0.00000000
        0.00000000     7.60600008     0.00000000
       -1.89786986    -1.89786986     4.85670466
PRIMCOORD
23 1
Ti      3.75550300     6.56409501     1.29610902     1.68565674    -0.00432511    -0.75455067
Ti      3.69721402     2.74944502     1.13448199     0.38636573     0.16134732     1.01329990
Ti      0.09108098     6.75297001     1.22533802    -1.45875114    -0.54793391     0.14344576
Ti     -0.05180799     2.93653701     1.03551600    -0.24370776     0.67603300    -0.63664317
Ti      5.63116223     3.05900223     3.56366280     0.18490867    -2.13997315     0.54473751
Ti      5.74318324    -0.99797977     3.56864379     0.09686249     1.73803450     0.20520908
Ti      2.03990321     2.77900825     3.71643881    -0.15376591     0.19206199     0.08884707
Ti      1.93319324    -1.06064880     3.63087382    -0.08563037    -0.29451432     0.83121431
O       3.60799198     4.65699401     0.93974900     0.15805323     0.07782629    -0.99881096
O       3.81862802     0.92789701     1.03026498    -0.10825171    -0.37160014    -1.22016631
O      -0.04219998     4.86977597     0.68766499     0.61566039    -0.01267477     1.23014682
O      -0.09063399     1.12702700     0.61805998    -0.03142763    -2.00942097     1.79062926
O       5.85561022     4.80417424     4.12045183     0.41948335     0.58265076    -0.62825649
O       5.79041220     1.06273323     3.94357180     0.41153787     0.19921557    -0.05567160
O       1.87357222     4.64098423     4.20204880    -0.24764515     0.73647118    -0.93758783
O       1.88074722     0.83068922     3.98117582    -0.26787588     0.49174654     1.22152411
O       3.84769425     2.86346224     3.47162480    -1.62817096    -0.00723354    -1.05632887
O       3.82157221    -1.14455679     3.17919579    -0.54355249    -0.11041170     1.79998165
O       0.01142425    -1.08713777     3.16715579     1.23284339     0.28870825     0.47561621
O       5.71024502     6.63977799     1.73540298     0.44637967     0.24484393    -2.29040357
O       5.63897998     2.96501299     1.65484601     1.04946299     0.12909977    -0.70283368
O       1.97194500     6.76770500     1.72095803    -2.03575910    -0.01963218    -0.47773840
O       1.74157101     2.83146501     1.76732300     0.11732334    -0.00031856     0.41433986
