# total energy = -19071.74802697 eV

CRYSTAL
PRIMVEC
        7.60600008     0.00000000     0.00000000
        0.00000000     7.60600008     0.00000000
       -1.89786986    -1.89786986     4.85670466
PRIMCOORD
22 1
Ti      4.02648101     6.79471701     1.30531702    -0.74241068    -0.79180571     0.41334381
Ti      3.36589498     2.84356502     1.11249298     0.48370619    -0.82623948    -1.33896366
Ti      0.01459503     6.60132702     1.22127500     0.30319540     0.26683073    -0.24042395
Ti     -0.06927100     2.85357001     1.13600502    -1.93531120     0.12595685     1.90253271
Ti      5.34115823     3.02366822     3.63976579     1.03600301    -0.08609471    -3.40292032
Ti     -1.23955675    -0.46896079     3.84440779    -1.55018089    -0.55598558     0.81097380
Ti      1.98174721     2.74624223     3.73966980    -3.22669684    -0.61878557     1.31627264
Ti      2.08981722    -1.01009877     3.72743279    -1.09249325    -0.18671512    -1.22994987
O       3.56824098     4.56509000     0.81394600     0.25110817     2.44700643    -0.22872542
O       3.74817500     0.96839802     1.03433901     0.72301710    -2.39426357    -0.85886267
O       0.02495102     4.79005701     0.53316502     0.98651979    -1.59937331     2.97605121
O       0.06185701     0.88971698     0.69847502    -0.50993042    -1.01072700     1.08209519
O       5.18908221     4.78094320     4.28468480    -0.07199040    -0.47682566    -2.54390569
O       5.15219824     0.89111322     4.01100983     0.42804873     0.03088102    -1.18547697
O       2.34493320     4.63606521     4.35563381    -0.40476275     0.90471832    -1.34563696
O       2.03882221     0.83186023     3.96341282     0.51051329    -0.53499586     0.02942423
O       3.61841524     2.62038721     2.95340681    -0.45790490     0.92880725     1.17640869
O       0.14438125     2.45016322     2.99474979     1.23051140     1.57469663     0.26694180
O       5.77421202     6.39613102     2.04911999     0.61286175     1.21012743     0.00057258
O       5.64211901     2.93379101     1.57829401     0.42883214     0.24252865     0.90045337
O       1.88212700     6.46386799     1.77063999     0.74038414     0.44072221     1.36185060
O       1.61856397     2.49550900     0.30288698     2.25697998     0.90953605     0.13794462
