# total energy = -4987.44934347 eV

CRYSTAL
PRIMVEC
        3.26451363     0.00000000     0.00000000
        0.25559071     5.10861365     0.00000000
       -0.00000141    -0.00006639     5.11660377
PRIMCOORD
6 1
Ti      1.76005134     2.55427346     2.55830177     0.00000000     0.00000000     0.00000000
Ti      0.00000000     0.00000000     0.00000000     0.00000000     0.00000000     0.00000000
O       1.68206731     0.99558049     0.99715064     0.19920375    -0.70291055    -0.71522537
O       1.83803532     4.11296643     4.11945284    -0.19920375     0.70291055     0.71522537
O       0.07798333     1.55866606     3.55545345    -0.19951511     0.70289770    -0.71515544
O       0.17760585     3.54988109     1.56115003     0.19951511    -0.70289770     0.71515544
