# total energy = -19518.86664406 eV

CRYSTAL
PRIMVEC
        7.60600008     0.00000000     0.00000000
        0.00000000     7.60600008     0.00000000
       -1.89786986    -1.89786986     4.85670466
PRIMCOORD
23 1
Ti      3.76814398     6.55158499     1.27071000     1.18601819     0.76497392    -0.27615252
Ti      3.72564401     2.79629599     1.17367900     0.36932856    -0.69420068     0.10828076
Ti      0.07490800     6.74236900     1.24808402    -1.32548516    -0.44135933    -0.45445062
Ti     -0.04060398     2.91828802     1.02494299    -0.26324738     0.33829765     0.50322755
Ti      5.61844420     2.98301624     3.59784083     0.76888791    -0.35004014     1.26254170
Ti      5.73744923    -1.00236876     3.59560479    -0.15848054     1.18637249    -0.92589316
Ti      2.05631125     2.82462920     3.66670383    -0.88367794    -0.08463021     0.75756066
Ti      1.91853625    -1.03613075     3.64026179     0.20351035    -0.04192160     0.89598222
O       3.67028800     4.67902001     0.89755097    -0.03945411     0.06635146    -0.67779575
O       3.78842798     0.90508699     0.94664799    -0.08535166     0.54379392    -0.97522879
O      -0.05636600     4.87254902     0.68720598     0.65885263    -0.51752649     1.20011452
O      -0.07593799     1.02037799     0.66953199     0.12669116    -0.29148967     1.46571986
O       5.79418322     4.85705921     4.03567483     0.35052094    -1.69312297    -0.06337540
O       5.74520025     1.02032221     4.02838780     0.46968827     0.21835667    -0.91841125
O       1.87795222     4.68901622     4.08404984    -0.22956772    -0.03581060     0.22034491
O       1.86053620     0.88836520     4.00683282    -0.20016020     0.29902558     1.14115602
O       3.83243124     2.89750220     3.45960682    -0.96474254    -0.16033662    -0.91890541
O       3.81894225    -1.08247577     3.21180084    -0.26526878     0.13075787     0.53591426
O       0.07108724    -1.15106577     3.16138379    -0.67539948     0.77857763     0.40971701
O       5.69474500     6.63723101     1.63664998     0.48536866     0.18880543    -0.26283626
O       5.64506700     2.91930399     1.75094502     1.29613344    -0.00119685    -1.84658780
O       1.92020702     6.75905301     1.70071102    -0.27298749    -0.15362707    -0.60088194
O       1.79275002     2.85885199     1.80260600    -0.55117607    -0.05004988    -0.58004006
