# total energy = -19960.78920099 eV

CRYSTAL
PRIMVEC
        7.60600008     0.00000000     0.00000000
        0.00000000     7.60600008     0.00000000
       -1.89786986    -1.89786986     4.85670466
PRIMCOORD
24 1
Ti      3.81308002     6.72412101     1.14724898    -0.24656169    -0.32544316    -0.23142534
Ti      3.78300000     2.87780998     1.16678900     0.42647135    -0.73433639     0.63308554
Ti     -0.06642699     6.71234698     1.28757302     0.07035929     0.02245834    -0.83498380
Ti     -0.04884200     2.90643699     1.32742198     0.02084754    -0.19928731    -0.97896666
Ti      5.63325624     2.95644223     3.73285082     1.31711622    -2.78031640    -0.95530890
Ti      5.62972425    -0.97436576     3.64616683     0.19258444     2.55073891     0.46639829
Ti      2.04375022     2.78061224     3.63929684    -0.95689502     0.08095096    -0.60052045
Ti      1.91762823    -0.97570479     3.56191980     0.40106010    -0.45478358     0.18633151
O       3.82300199     4.71057300     0.75938301    -0.26290362     0.05112846     0.19573327
O       3.89712797     0.93604899     0.66515400    -0.68516582    -0.47865217     0.46619903
O      -0.16136900     4.75702201     0.79344202     0.34334190     0.82395402     0.69912769
O      -0.11795901     1.14080402     0.69703201    -0.04404430    -3.50560636     1.15842227
O       5.64333622     4.74881722     4.13190080    -0.05516921     1.01939599    -0.18184288
O       5.71105424     0.92009022     4.03528081     0.43801793     0.45809876    -0.31345179
O       2.16795225     4.69666723     4.01969982    -0.64392788    -0.02897326    -0.22255966
O       2.07951424     0.86629322     4.09148779    -0.74335891     0.43509664    -0.51600414
O       3.88746223     2.49424220     3.18108982    -1.34557783     1.19801110    -0.14788965
O       3.80450222    -0.96478977     3.17832180    -0.95570640    -0.12910876    -0.61289491
O       0.03870222     2.76079921     3.21439280     0.52946130     0.45548652     1.17585950
O      -0.00473577    -1.06589575     3.16690279    -0.04712757     0.13384680     0.48297085
O       5.59628300     6.76222802     1.59878899     1.54961602    -0.33736126     0.10824888
O       5.74191300     2.95782301     1.76325702    -1.41123148     0.14535763    -0.77662488
O       1.82778298     6.57011302     1.49652501     0.69693917     0.65858446     0.55290103
O       1.90128200     2.63987998     1.62933998     1.41185498     0.94076031     0.24719546
