# total energy = -4990.28173238 eV

CRYSTAL
PRIMVEC
        3.91846650     0.00000000     0.00000000
        0.19579257     3.91357190     0.00000000
       -2.05716432    -1.95681904     5.00239926
PRIMCOORD
6 1
Ti      0.14668613     2.93532753     1.25059968     0.00021880    -0.00021880     0.00000000
Ti      1.91040811    -0.97857515     3.75179931    -0.00021880     0.00021880     0.00000000
O       0.04898936     0.97838657     0.81484994    -0.00030622    -0.00083895    -0.43664264
O       2.00810472     0.97836570     4.18754911     0.00030622     0.00083895     0.43664264
O      -0.04897004    -0.97836819     3.31604957    -0.00083895    -0.00030622    -0.43664264
O       2.10606412     2.93512041     1.68634953     0.00083895     0.00030622     0.43664264
