# total energy = -4986.25549544 eV

CRYSTAL
PRIMVEC
        4.74537807     0.00000000     0.00000000
       -0.00000814     3.50745355     0.00000000
       -2.37271808    -1.75377266     5.38744212
PRIMCOORD
6 1
Ti     -0.00020493     2.63071932     1.34686021    -0.00285084    -0.00407160     4.84137465
Ti      2.37285655    -0.87703842     4.04058110     0.00285084     0.00407160    -4.84137465
O       0.00004950     0.87685509     0.87757015     0.00048542     0.00118785    -1.20394701
O       2.37260195     0.87682575     4.50987116    -0.00048542    -0.00118785     1.20394701
O      -0.00002124    -0.87685171     3.57129103    -0.00239833    -0.00023063    -2.07545926
O       2.37267263     2.63053244     1.81615034     0.00239833     0.00023063     2.07545926
