# total energy = -4982.77629395 eV

CRYSTAL
PRIMVEC
        2.93454857     0.00000000     0.00000000
        1.96939826     4.15488311     0.00000000
       -0.00001287    -0.00006178     4.72505750
PRIMCOORD
6 1
Ti      2.45196688     2.07741068     2.36252865     0.00000000     0.00000000     0.00000000
Ti      0.00000000     0.00000000     0.00000000     0.00000000     0.00000000     0.00000000
O       1.85107842     0.80971354     0.92084409    -6.01341992     2.72163121     3.44764442
O       3.05285529     3.34510784     3.80421321     6.01341992    -2.72163121    -3.44764442
O       0.60088308     1.26767221     3.28337371     6.01326385    -2.72265142     3.44812367
O       1.36850220     2.88714903     1.44168358    -6.01326385     2.72265142    -3.44812367
