# total energy = -19517.80026020 eV

CRYSTAL
PRIMVEC
        7.60600008     0.00000000     0.00000000
        0.00000000     7.60600008     0.00000000
       -1.89786986    -1.89786986     4.85670466
PRIMCOORD
23 1
Ti      3.68764998     6.65570199     1.30021898     1.54572902    -1.45116330    -0.46278948
Ti      3.79972602     2.81760400     1.15867698    -0.04108547     2.06251658     0.11481291
Ti      0.01608101     6.60511698     1.25155399    -1.53299049    -1.61366788    -0.58883246
Ti      0.02057801     2.77493401     1.10675400    -0.68749627     2.01814138     0.12328419
Ti      5.52965223     2.93351123     3.53208383     1.15327158    -0.66790446     3.53738983
Ti      5.82406221    -0.99347779     3.73139680    -1.16176214     0.87943022    -2.34711544
Ti      2.10040124     2.93771623     3.59434180    -2.31950718     1.08880706     2.84968119
Ti      1.86988724    -0.85853479     3.66724380     1.28197257    -1.33264414    -0.00791000
O       3.95075300     4.76047198     0.90010600    -0.47126693    -0.93180516    -0.74253178
O       3.54524198     0.97268801     0.75459999     0.02401000     0.21980909     0.42040663
O       7.30700700     4.70784001     0.69017202     0.80420357     0.58194628     0.60267066
O       0.18818702     0.91029102     0.82783198    -0.04142666    -0.74787171     0.03253707
O       5.58328222     4.76209221     3.96184979     0.94894696    -0.05689313     0.54569191
O       5.86673025     0.97999721     4.09159881    -0.16598868    -0.52589724    -0.80553797
O       2.04465924     4.80519920     4.09128480    -0.94835792    -0.53895125     0.55177360
O       1.91170023     1.07239622     3.90234381    -0.41054131    -0.89864537     1.18286627
O       3.77409924     2.85683122     3.14217783     1.18738113    -0.26923291    -0.58302614
O       3.72997924    -0.94174579     3.25885581     1.01743012     0.92362853    -0.03853519
O       0.04786022    -0.81612779     3.18649383    -0.84351473    -0.39159664     0.30121796
O       5.71072398     6.55741102     1.66435098     0.22911212     1.08034375     0.63054914
O       5.68710998     2.63941902     1.75232998     1.52447345    -0.46141189    -2.94338405
O       1.87981799     6.19111400     1.69452800    -0.46812015     1.25913319    -0.56549095
O       1.79066199     3.02843102     1.78874801    -0.62447260    -0.22607127    -1.80772813
