# total energy = -19517.82200945 eV

CRYSTAL
PRIMVEC
        5.17600016     0.00000000     0.00000000
        0.00000000     5.50899976     0.00000000
        0.00000000     0.00000000     9.26300011
PRIMCOORD
23 1
Ti      1.78516098     3.25330802     3.45801098     0.12617591    -0.58502029     2.44957651
Ti      3.40838399     2.27622303     5.77618199     0.01783472     0.02343716    -1.82601871
Ti      4.36001000     2.00355799     1.57969998     1.02287083    -0.12239690    -1.12924718
Ti      1.06682599     3.32051999     7.85217398    -2.58142813    -0.58231703     0.49885822
Ti      1.94247898     0.32922900     1.22822198    -0.11684434    -0.08441963     0.72828221
Ti      3.32154701     5.36680200     7.89353902     0.31446377    -1.96666119    -0.35320851
Ti      0.65887002     0.46591400     5.89280800    -0.04554068     0.68674088    -2.35973467
Ti      4.38802698     4.88858701     3.34726101     0.09627731     1.09673146     2.85821108
O       1.51547702     2.03630703     4.88242601     0.96195701     0.54996740    -1.08677871
O       3.47199502     3.69831301     4.55608700    -0.46208192    -0.61841713    -0.10530523
O       0.35330202     2.50565698     0.10264901     0.20656019    -0.25226645     0.26997930
O       3.41280998     0.85529199     0.15897501     0.92554863     1.31227097     0.26609668
O       1.74216602     4.76031698     8.91185100     0.00638945     0.30100996     0.78714147
O       4.24023401     0.78368701     4.65713001    -0.45720093     0.61930391     0.55409196
O       0.93027202     4.78362602     4.47372300     0.57701541    -0.53942818     0.01958539
O       0.02647400     3.32505800     2.69243998     0.53103482    -1.14940772    -1.18662008
O       4.98294101     2.00274602     6.73178101     0.25703816     0.33736408     1.18551400
O       2.60751301     1.84699498     2.37531898    -0.11184020     0.59699726    -0.77031025
O       2.71121398     3.51524801     7.07912301     0.40016639     0.33544090     0.41067192
O       0.18574598     0.54116200     2.13779899     0.40376953     0.44571273    -1.11947416
O       5.05957899     4.71449701     7.17305599    -0.15877853     0.42212953     0.42528505
O       2.43800098     0.92850800     6.78176402    -1.14437684    -0.63546227     0.35799745
O       2.81954402     4.59179599     2.30307300    -0.76901030    -0.19130969    -0.87459346
