# total energy = -19959.24167706 eV

CRYSTAL
PRIMVEC
        7.60600008     0.00000000     0.00000000
        0.00000000     7.60600008     0.00000000
       -1.89786986    -1.89786986     4.85670466
PRIMCOORD
24 1
Ti      3.86759300     6.82993598     1.03570402    -0.99445576     0.03413192     0.10596394
Ti      3.76885800     2.93734501     1.24591000     0.97534835    -0.80323658    -1.66095023
Ti     -0.12527901     6.65033100     1.24682399     1.02496423    -2.28960832     0.31034898
Ti     -0.05950000     2.59847102     1.24356998     0.10645631     2.48620986     2.21608760
Ti      5.53010123     2.82953822     3.76393279     1.15769002    -1.48568500     0.08268028
Ti      5.68381024    -0.99486879     3.65362780    -0.41688139     0.89458945    -0.32527115
Ti      1.91911120     2.88749424     3.61757580    -1.62210727    -0.38808040     0.76747355
Ti      1.94912523    -0.84790875     3.45828483     0.96519043     0.61826261     1.06397688
O       3.99428799     4.85948602     0.80570999    -0.47839429    -0.69519364     0.33607493
O       4.17130497     1.18097900     0.57236298    -1.27029153    -2.17560711     0.57499710
O      -0.21208101     4.72139700     0.88924199     0.18648141     0.61827418    -0.10974295
O      -0.16899101     0.85730302     0.80141698     0.32925508    -0.51201482    -0.36552976
O       5.63822024     4.67136620     4.15449481    -0.38090290     0.92048793    -1.07865351
O       5.84166021     0.85847621     4.28318479    -0.02258998    -0.19483467    -1.84410360
O       2.21068321     4.82504822     3.99140381    -0.42379895     0.04261271    -0.65854590
O       1.92092321     1.01571922     4.09982080    -1.00557322    -0.23727511    -0.04861418
O       3.73160720     2.32880425     3.37075282     2.33784841     2.06427239    -1.33419529
O       3.85172721    -0.81823778     3.04062480    -0.10020493    -0.28902116     0.95924064
O       0.04932821     2.72135920     3.37793783    -0.35279765     0.59289789    -0.48459939
O       0.09677721    -1.04916878     3.38288479    -1.66509459    -0.01529627    -1.70303637
O       5.62497700    -0.62441100     1.66874802     2.94630122    -1.13682217     0.65032968
O       5.75590000     2.73370702     1.72318898    -1.36208997     0.77890262     1.13230834
O       1.92563902     6.74401601     1.33587198    -0.43910987     0.33808785     1.50880231
O       1.91653998     2.65000500     1.65389000     0.50475685     0.83394610    -0.09504163
