# total energy = -4985.87154305 eV

CRYSTAL
PRIMVEC
        4.81098237     0.00000000     0.00000000
       -0.00000825     3.55594369     0.00000000
       -2.40552063    -1.77801836     5.46192288
PRIMCOORD
6 1
Ti     -0.00020776     2.66708871     1.36548040    -0.00297862    -0.00214456     4.36371081
Ti      2.40566102    -0.88916338     4.09644167     0.00297862     0.00214456    -4.36371081
O       0.00005018     0.88897751     0.88970245     0.00038901     0.00104567    -0.99820623
O       2.40540290     0.88894777     4.57221961    -0.00038901    -0.00104567     0.99820623
O      -0.00002153    -0.88897409     3.62066372    -0.00234510    -0.00018666    -2.17496768
O       2.40547456     2.66689924     1.84125841     0.00234510     0.00018666     2.17496768
