# total energy = -19517.76623902 eV

CRYSTAL
PRIMVEC
        7.60600008     0.00000000     0.00000000
        0.00000000     7.60600008     0.00000000
       -1.89786986    -1.89786986     4.85670466
PRIMCOORD
23 1
Ti      3.73281500     6.74231301     1.24261201     0.25195252    -0.56071178     1.14221197
Ti      3.82964798     2.85202799     1.15767800    -0.01120179     0.61169601    -0.24321385
Ti      0.04289601     6.63248402     1.18417798    -0.96484924    -0.91272011    -0.52751909
Ti     -0.03172100     2.72939000     1.14279902     1.10255989     1.07009173    -0.95731642
Ti      5.61142620     2.79734022     3.63164880    -0.55457996    -0.39463851     0.67336060
Ti      5.82224020    -1.02224577     3.58665079    -0.79592847     0.28265125     0.45400916
Ti      2.10475123     3.03211621     3.76893383    -0.25221220    -2.27774448    -1.36793846
Ti      1.91272324    -0.86391779     3.67455481     0.40902178     0.82422270     0.64228418
O       3.80174700     4.72200402     0.82727698     0.56796693     1.62516663     0.65770155
O       3.49624499     1.01052100     0.85597003     0.41020115    -1.17758754    -0.99646894
O      -0.29660200     4.70124699     0.76334400     0.69161364    -0.08885376    -0.49583357
O       0.25175602     0.86359700     0.73341803    -0.32498833    -0.54885925     0.25041191
O       5.25103125     4.68574824     3.98835480     1.94389638     0.43429060     0.19290454
O      -1.56381979     0.88859825     4.06654979    -0.98427393     1.00705417    -0.15853094
O       2.03633020     4.83738821     4.12948780    -0.19682059     0.54755544    -0.02530404
O       1.52855124     1.10480922     4.13207579     1.08025942    -0.83818817    -1.03321541
O       3.82693325     2.61948422     3.01066681    -0.68244277     0.03662589     2.29529509
O       3.81394221    -0.75787078     3.27472684    -1.08466475     0.33348532    -0.48247257
O       0.13287323    -0.80335975     3.19506783    -1.27260115    -1.29888118    -0.66118668
O       5.71041600     6.64160100     1.75308602    -0.12075653     0.28346629    -1.32402426
O       5.76588701     2.55750201     1.51554602    -0.53768626     0.36267378     0.57368455
O       1.84452700     6.33386999     1.45658202     1.26137082     0.68068902     0.78228954
O       1.67720798     3.00057402     1.86514200     0.06416319    -0.00148430     0.60887062
