# total energy = -19518.09921113 eV

CRYSTAL
PRIMVEC
        5.17600016     0.00000000     0.00000000
        0.00000000     5.50899976     0.00000000
        0.00000000     0.00000000     9.26300011
PRIMCOORD
23 1
Ti      1.86366099     3.23471199     3.55155502    -0.88611406    -0.02582905     0.52862672
Ti      3.43702502     2.17186800     5.82012497    -0.98289299     0.84425623    -1.37945701
Ti      4.40094700     2.08437098     1.38327600    -1.08185608     0.28246973     0.12051485
Ti      0.84393198     3.37334299     7.75749797     1.24858986     1.26678248     0.76672202
Ti      1.98234899     0.32291301     1.41436903     0.54928914    -0.35128944    -1.34441980
Ti      3.24727402     5.15551301     7.98427498     0.74968819    -0.29910348    -0.13061312
Ti      0.68998300     0.53465302     5.92135600     0.37567431    -0.30044380    -2.37046106
Ti      4.45960301     4.89435398     3.32463201     0.93684349     0.01387882     2.30762482
O       1.62693900     1.92682099     4.76078499     0.10716928    -0.52617029     0.82643719
O       3.52238999     3.57785899     4.43062299     0.10551606    -0.61950291     1.24052971
O       5.13843403     2.99765900     0.00694402    -0.23054165    -0.43344007    -0.01715852
O       3.41216798     0.92708499     0.04534599     0.13888564     0.94255340     1.19134706
O       1.97596500     4.58118398     9.12566898    -1.48746215    -0.71247300     0.80642192
O       4.29044701     0.84667598     4.79318900    -0.36489932    -0.17591983    -0.74976096
O       0.85501698     4.73734498     4.50732501     0.92340716    -0.60918378     0.21437095
O       0.13505402     3.38977600     2.52150102     0.30086778    -0.55442929    -0.10133416
O       5.07787202     2.10854702     6.81874002    -0.33247950    -0.50287737    -0.24183677
O       2.61777202     1.93525603     2.23261998     0.08643589     0.42812046    -0.37472506
O       2.66473300     3.54336002     6.95578798    -0.84138431    -0.85215235     0.76352073
O       0.09290299     0.55796597     1.94225402     1.42656709     0.07495746    -0.29380495
O       5.02918999     4.85218702     7.24611500     0.35892639     0.21569352    -0.07213233
O       2.45414999     0.71643699     6.78517499    -0.71242338     0.91613865    -0.37231439
O       2.79976703     4.58721199     2.45860402    -0.38780658     0.97796419    -1.31809786
