# total energy = -19910.06151991 eV

CRYSTAL
PRIMVEC
        6.87469347     0.00000000     0.00000000
        0.00003421     6.61991899     0.00000000
        0.00000000     0.00000000    11.74764450
PRIMCOORD
24 1
Ti      2.49176604     3.92295780     4.35829243     0.22144817    -0.94867211     0.78647761
Ti      4.38296164     2.69696105     7.38935248    -0.22144817     0.94867211    -0.78647761
Ti      5.92899296     2.69696333     1.51548310     0.22135227     0.94835998    -0.78643853
Ti      0.94573478     3.92295586    10.23216201    -0.22135227    -0.94835998     0.78643853
Ti      2.49174900     0.61299844     1.51553023     0.22144817    -0.94867211    -0.78647761
Ti      4.38297875     6.00692062    10.23211488    -0.22144817     0.94867211     0.78647761
Ti      0.94571768     0.61299603     7.38930542    -0.22135227    -0.94835998    -0.78643853
Ti      5.92901000     6.00692310     4.35833955     0.22135227     0.94835998     0.78643853
O       2.17589596     2.33098593     5.99473322     1.15766688     1.38170390    -0.46634892
O       4.69883179     4.28893293     5.75291168    -1.15766688    -1.38170390     0.46634892
O       1.26151516     2.33101270     0.12094859    -1.15764503     1.38195278    -0.46725652
O       5.61321266     4.28890622    11.62669605     1.15764503    -1.38195278     0.46725652
O       4.69881468     0.97897336     0.12091050    -1.15766688    -1.38170390    -0.46634892
O       2.17591306     5.64094550    11.62673414     1.15766688     1.38170390     0.46634892
O       5.61319555     0.97894666     5.99477138     1.15764503    -1.38195278    -0.46725652
O       1.26153206     5.64097227     5.75287359    -1.15764503     1.38195278     0.46725652
O       0.24979444     4.02661002     3.17333194    -0.18011176    -0.11610875     0.11160803
O       6.62493331     2.59330891     8.57431297     0.18011176     0.11610875    -0.11160803
O       3.68714726     2.59324729     2.70052787    -0.18016395     0.11637280    -0.11182426
O       3.18758042     4.02667163     9.04711690     0.18016395    -0.11637280     0.11182426
O       0.24977733     0.71665045     2.70049031    -0.18011176    -0.11610875    -0.11160803
O       6.62495035     5.90326847     9.04715439     0.18011176     0.11610875     0.11160803
O       3.18756338     0.71671207     8.57435046     0.18016395    -0.11637280    -0.11182426
O       3.68716437     5.90320679     3.17329445    -0.18016395     0.11637280     0.11182426
