# total energy = -19960.69887466 eV

CRYSTAL
PRIMVEC
        7.60600008     0.00000000     0.00000000
        0.00000000     7.60600008     0.00000000
       -1.89786986    -1.89786986     4.85670466
PRIMCOORD
24 1
Ti      3.76080398     6.65738499     1.06879199     0.84314911     2.53023873     2.13293295
Ti      3.85404300     2.99255402     1.11263703    -0.08660636    -2.12279380     0.98316065
Ti     -0.03339902     6.69235000     1.21925698    -1.17031749     0.50975713     1.06096791
Ti     -0.00143100     2.93315298     1.30376902    -0.29911197    -1.05436352    -0.42620190
Ti      5.70459420     2.84223720     3.76523081    -1.00629518    -1.37557721    -1.18740453
Ti      5.70705922    -1.02738075     3.70463880    -0.93721604     1.56338454    -1.66568697
Ti      1.95439425     2.85488925     3.66034984     0.90130260    -0.09836067    -1.09643758
Ti      1.87598421    -0.98411876     3.54748480     1.07387588     0.02799701     0.94197696
O       3.80919401     4.85927800     0.76799198    -0.14112996    -2.53222336     0.23536170
O       3.85183601     0.91309497     0.61362902    -0.38982772     0.66574627     0.86896326
O      -0.15636399     4.79178901     0.85722899     0.59961773    -1.08597833    -0.26077886
O      -0.26911097     0.96421598     0.75681999     0.81093935     0.68323775     0.88684554
O       5.74222924     4.76276924     4.16136480    -0.22216191    -0.97821101    -0.63486294
O       5.81691620     0.96796621     4.02751381     0.27852822    -0.13393447     1.24634658
O       2.07069423     4.74554124     3.99991579    -0.36004611    -0.63399211    -0.87794592
O       1.89477021     0.95725624     4.09297081    -0.33166009    -0.02179191    -0.09942460
O       3.84018120     2.56356421     3.31018182     0.79486815     1.21806675    -0.27167263
O       3.71691724    -0.98974577     3.06957683     0.67520279     0.19652543     0.98188178
O       0.05628223     2.74103221     3.29226282    -0.94235594     0.79406339    -0.88981157
O      -0.07306678    -1.23155876     3.22821782     0.88399213     0.85944760    -0.15455910
O       5.65176803     6.72435300     1.69480402     0.50419532    -0.33709592    -0.30093951
O       5.67041099     3.00838299     1.60271803     0.59529802    -0.15116241     0.71320757
O       1.88062498     6.53600898     1.57646999    -1.22368204     0.75284448    -0.70012425
O       1.98288103     2.75628199     1.75062201    -0.85055878     0.72417590    -1.48579479
