# total energy = -19960.68453916 eV

CRYSTAL
PRIMVEC
        7.60600008     0.00000000     0.00000000
        0.00000000     7.60600008     0.00000000
       -1.89786986    -1.89786986     4.85670466
PRIMCOORD
24 1
Ti      3.87060302     6.51140599     1.23118300     0.22924556     0.68989228     0.09627422
Ti      3.81526701     2.76949401     1.33361398     0.61526316    -0.33621583    -2.09398432
Ti      0.06258601     6.78017998     1.19537500    -0.00951051     1.21245814    -0.55148486
Ti      0.00967500     3.00285398     1.26267899    -0.92793616    -1.66255305    -1.16569695
Ti      5.66779220     2.94358724     3.68447979    -0.66875498    -0.86685958    -0.54184502
Ti      5.78121224    -0.86745476     3.58036480    -1.81154134     0.76997652     0.31890587
Ti      1.76047524     2.77565924     3.61220682     1.29972373    -0.72315286     1.29842429
Ti      1.83381624    -1.05270977     3.56419283     2.45127164     0.21187003     1.74526856
O       3.99039398     4.65580199     0.90173603    -0.52157932    -1.41296955    -0.73487375
O       3.87464800     0.75637601     0.67693502    -0.08273067     2.75519311     0.37040457
O      -0.03208402     4.82068298     0.84968398     0.31046339    -0.06904314    -0.49859160
O       0.04580198     1.04246299     0.74052699     0.08080749    -0.35302674     0.23109187
O       5.75394924     4.92793822     4.04488183    -0.02964740    -2.23614864    -0.00361986
O       5.49174821     1.00127824     4.00680583     0.64920250     0.98391064     0.86552775
O       1.78903620     4.65327924     4.13194181    -0.12597896    -0.59488124    -1.93576500
O       1.83994221     0.91061424     4.01097480     0.01891818     0.18005879     0.59087726
O       3.73877925     2.88053921     3.16644384     0.49906931     0.29660463     0.99595883
O       3.73248924    -0.98663976     3.18447381     1.04633473    -0.05139637     0.08568050
O      -0.06863275     2.82044225     3.23133880    -0.11880249     0.42038221     0.51920234
O       0.01407723    -0.75736779     3.23871982    -0.08672668    -0.28084530    -1.20425580
O       5.76897798     6.65370699     1.51790801     1.05553363     0.16046621     1.16682824
O       5.73360598     2.73527699     1.74174501    -0.53796934     0.30107861    -0.40501446
O       2.04498903     6.56271602     1.43870102    -3.70915193    -0.06236496     1.19942573
O       1.83013999     2.68648801     1.67432899     0.37449597     0.66756610    -0.34873865
