# total energy = -79406.43761577 eV

CRYSTAL
PRIMVEC
       10.35150501     0.00002646     0.00000000
        0.00002858    11.01713167     0.00000000
        0.00000000     0.00000000     9.26345890
PRIMCOORD
95 1
Ti      7.00950027     8.83759800     3.48620699     0.05850727    -0.10625679    -0.15001698
Ti      7.14589274     3.23198219     3.42169278     0.00509490     0.01197955    -0.00107241
Ti      1.85537479     8.80606774     3.45314878    -0.04273304     0.01194175     0.00847359
Ti      1.76989668     3.16947805     3.48095741     0.01460439    -0.14710726     0.13022231
Ti      8.48490149     7.74062005     5.80019054    -0.01684870    -0.12726580    -0.03084348
Ti      8.51093774     2.22171904     5.83644227    -0.10408935     0.07043643    -0.09746696
Ti      3.26682586     7.72939830     5.81623375     0.17041355    -0.13609240    -0.06828364
Ti      3.32339942     2.22407465     5.82312543     0.02280055    -0.02700045    -0.05175427
Ti      9.52352600     7.79587972     1.20827097    -0.04592300    -0.21852482     0.12448900
Ti      9.65822633     2.16860074     1.15490249     0.06603367     0.10762488     0.00740889
Ti      4.47095686     7.69547070     1.21212594    -0.08409722    -0.06905266     0.07677703
Ti      4.48595631     2.24414907     1.20839938    -0.06325585     0.02562851     0.06475943
Ti      5.89928984     8.80267186     8.10264146    -0.02335154     0.08747359     0.00512807
Ti      5.91644342     3.27336603     8.06200243     0.02391204     0.10525843     0.18618856
Ti      0.66674053     8.90675659     7.93015031    -0.03062802     0.15646660     0.02739383
Ti      0.72620804     3.30287538     8.08611404     0.08261137    -0.01382637    -0.05872839
Ti      7.01962299     6.01056807     1.17643505     0.03687606     0.08265406     0.14613719
Ti      7.02765490     0.54776376     1.23521404    -0.02072567    -0.09070881    -0.07546011
Ti      1.73823515     6.30721904     0.95659184     0.04845863    -0.17448978    -0.07069405
Ti      1.87861277     0.50369382     1.17381236     0.02120107     0.11088452    -0.10218211
Ti      8.39987777    10.47468329     8.11507058     0.19988586     0.05323754    -0.14174831
Ti      8.51131343     4.96428198     8.10187230    -0.04499921    -0.08213058    -0.06169056
Ti      3.33793765    10.47478046     8.10336173    -0.06939950    -0.03442940    -0.04091784
Ti      3.30440675     4.95227983     8.08615979    -0.01366825    -0.02467617     0.01414030
Ti      5.90018758     6.13955234     5.97700428     0.00591894     0.02353589    -0.09386510
Ti      5.90125391     0.55118428     5.83428289    -0.05595880    -0.00105004    -0.05559987
Ti      0.73769053     6.01812834     5.82355523    -0.03422165    -0.00660362    -0.18881957
Ti      0.72566784     0.54000171     5.84249380    -0.23037761    -0.26758946     0.17640500
Ti      9.64238021    10.50017728     3.45444633    -0.05774160    -0.05330850    -0.08230284
Ti      9.64845715     5.01383139     3.38933921     0.14124669    -0.10624856    -0.01356129
Ti      4.43002643    10.48786882     3.45303725     0.03809116    -0.09826760     0.02951808
Ti      4.72064516     4.94336586     3.63689301     0.10808305    -0.18785387     0.02784480
O       6.82741613     7.44266442     4.73446732    -0.02733624     0.03319450     0.06309978
O       6.83569095     1.93393690     4.72484781    -0.06791572    -0.05117988     0.02059609
O       1.63323773     7.46232504     4.76002464     0.03628265    -0.05748192    -0.09322926
O       1.60210793     1.90111836     4.70087210     0.00606832    -0.17590826     0.21138512
O       8.72560752     9.08716958     4.54166615    -0.06659931    -0.03072727    -0.00690367
O       8.76159677     3.56886987     4.53635140    -0.08963589    -0.06359960     0.03984106
O       3.52872719     9.08414887     4.54653270     0.00737290     0.00582381    -0.02395575
O       3.50969838     3.60977486     4.40715545    -0.32970939     0.13776490    -0.19879906
O       6.12504180     7.41605963     0.11932537    -0.14142101    -0.00325913    -0.01313911
O       6.11882782     1.91617358     0.08593968     0.03667783    -0.00564486     0.00889628
O       0.90315819     7.46817287    -0.04798306    -0.22021173     0.34171722    -0.05528568
O       0.93326897     1.90589011     0.07891316     0.14719391     0.03915457     0.06810212
O       9.36391530     9.12465790     9.16555028     0.22073366    -0.14500693    -0.03826883
O       9.41185814     3.56494009     9.16047493     0.00499591     0.01961495     0.03592629
O       4.20473405     9.04317329     9.18278255     0.01007487     0.09417543     0.04754537
O       4.24047735     3.57157842     9.17548651    -0.04818660     0.02225573     0.02526855
O       8.71753012     6.32089100     0.11005621    -0.07990580     0.07055958    -0.04496758
O       8.69607309     0.82370326     0.09151276    -0.03117001     0.00604595     0.00770097
O       3.53417119     6.32305836     0.07908138     0.08750753    -0.03702056     0.03220848
O       3.53549514     0.81909942     0.12259046    -0.00256570    -0.04211186    -0.04159429
O       6.79164930    10.18594069     9.18280954    -0.00220421     0.03321198     0.07404111
O       6.82512263     4.66275089     9.15903899     0.03961274     0.04213063     0.10470050
O       1.63819785    10.19462853     9.18400896    -0.14357508    -0.03519867    -0.11784321
O       1.66650491     4.67703414     9.19744095    -0.03551903    -0.09716408     0.10246750
O       9.42310056     6.29668152     4.72725325    -0.07506004     0.15570452     0.01226442
O       9.39371517     0.81479854     4.73167399     0.04392294    -0.01871070    -0.03147546
O       4.22795747     6.33886130     4.74240553     0.02462578    -0.01027567     0.08909647
O       4.20701998     0.84130378     4.70838491    -0.00850213    -0.02775044    -0.00384406
O       6.10470561    10.20395834     4.54701242     0.06614577    -0.05046280    -0.00118014
O       6.19228960     4.70628961     4.59650559     0.16799389    -0.08409696     0.12981736
O       0.94758387    10.18097806     4.53768435    -0.01074619     0.02608102     0.00332469
O       1.05276260     4.74447829     4.42682292    -0.01529370     0.04477552     0.03108619
O       5.34501539     8.83949265     2.50798188     0.04588624     0.01195846     0.06047725
O       5.43429316     3.34826619     2.50204944    -0.04467936     0.00663165     0.08088025
O       0.20424640     8.85395574     2.48163041    -0.12016055     0.05604261    -0.08936464
O       0.15459279     3.36781017     2.48808046     0.10037770     0.01066982    -0.14389133
O      10.16523325     7.65864458     6.73184688     0.10148174     0.10296578     0.11370528
O      10.18002467     2.12930599     6.77287245    -0.00923952     0.09471073    -0.04003749
O       4.99405926     7.65746244     6.78692551    -0.12081181    -0.04528126    -0.00907908
O       4.96299476     2.15672201     6.74083786     0.08370409     0.07957387     0.06048445
O       7.91710694     7.66470598     2.14317958     0.16911926     0.07306049    -0.09428702
O       7.96472801     2.11592446     2.13526050     0.00775651     0.06067986     0.03998787
O       2.75428705     7.49982795     2.15808467     0.00218981     0.15660955     0.09843549
O       2.77897060     2.25930092     2.12746890     0.03059203     0.08394963    -0.09208924
O       7.55105070     8.83856002     7.13148864     0.00058544     0.06775656     0.02099384
O       7.58014447     3.33792246     7.12231065     0.02794070     0.06954888     0.04966396
O       2.38576506     8.87466325     7.12999476    -0.08974156     0.07446277    -0.01394978
O       2.39071194     3.35144015     7.08418554     0.04887797     0.03245196     0.14544042
O       5.33752534     6.03478592     2.14363315    -0.02608179     0.11599716    -0.07908485
O       5.35690503     0.59109349     2.14465727     0.03928313     0.00099245    -0.01991937
O       0.20294731     6.16847924     2.07671848    -0.06267863    -0.21516542     0.19260141
O       0.20184598     0.61994807     2.15597665     0.05644036    -0.04322386    -0.03253784
O      10.12143255    10.43782458     7.10682686     0.08334414    -0.26213563     0.14963723
O      10.18451139     4.88416620     7.11935356    -0.02523153     0.04944825    -0.04045221
O       4.98752376    10.41020741     7.14766141    -0.00253279     0.04938860    -0.04384221
O       4.99436226     4.89064128     7.13997515     0.08353672     0.06580587    -0.07941009
O       7.58926889     6.10331717     6.79529100    -0.07812634     0.01797227    -0.03401082
O       7.54870762     0.59458226     6.76981526     0.04004392     0.05105313     0.01275216
O       2.39427108     6.10645271     6.78417238     0.00729782    -0.00146887    -0.06433597
O       2.39411119     0.58619115     6.76038754     0.15381656     0.28851311    -0.14454799
O       7.95333183    10.41466554     2.50208008    -0.00378364    -0.06239298     0.05870268
O       7.97161821     4.91871055     2.50707941    -0.03807831    -0.06703151    -0.09799609
O       2.77878863    10.38114440     2.48708562    -0.07050070     0.06520680    -0.04168634
