# total energy = -19518.66245818 eV

CRYSTAL
PRIMVEC
        7.60600008     0.00000000     0.00000000
        0.00000000     7.60600008     0.00000000
       -1.89786986    -1.89786986     4.85670466
PRIMCOORD
23 1
Ti      3.75870600     6.73346999     1.26529101     0.97595847    -0.22178421     0.17994361
Ti      3.76363899     2.93127302     1.20351602     0.55398089     0.12376961     0.04536508
Ti      0.00493701     6.59209002     1.25304500    -1.21867301     0.82745252    -0.97579006
Ti     -0.06082998     2.85315900     1.05783501    -0.02841533    -1.07520566     0.54033681
Ti      5.67326522     2.72899523     3.60459080    -0.44237723     0.11387420    -0.77376941
Ti      5.69890221    -1.11981976     3.58399580    -0.40648025     0.10348077     0.88310793
Ti      2.05695124     2.94884425     3.69328281     0.45071455    -0.90946303    -0.51668857
Ti      1.88734421    -0.94496975     3.67928279     0.21394517     0.46508368     0.63030952
O       4.09922198     4.82671799     0.73831699    -0.80981449    -0.37814797     1.67900709
O       3.79924601     0.99021801     0.83194802    -0.70157512    -0.00263230    -0.20609354
O      -0.18334499     4.67476701     0.67512100     0.48031413     0.91349812     1.53221170
O      -0.03092401     0.93318302     0.67238801     0.63986965    -0.82408695     0.97966240
O       5.61610725     4.62344121     4.01388083     0.96628469     0.92199356     0.26497208
O       5.67909823     0.87910724     3.95677482     0.56667315     0.46278177     0.15295678
O       1.93245721     4.74231321     4.13556979    -0.76118386     1.53234077    -0.15241737
O       1.92736224     1.02020923     4.06992879    -0.73196583    -0.56138181    -0.12016492
O       3.85528424     2.90014322     3.25138181    -0.52550694    -0.29064789    -0.77790143
O       3.76058024    -0.98665278     3.34287079    -0.35613700    -0.03659273    -1.15341479
O      -0.02073279    -1.05510779     3.29796883     0.58675476    -0.08042337    -0.68312102
O       5.69331500     6.88011199     1.70056301     0.02323970    -0.80609770    -0.48610400
O       5.68646798     2.69594801     1.63073600     1.52224610     0.49107703    -0.08738180
O       1.84366502     6.64750398     1.65734902     0.60669830    -0.14949608    -0.05752511
O       1.94885202     3.16177501     1.73674799    -1.60455049    -0.61939209    -0.89750097
