# total energy = -19959.33558141 eV

CRYSTAL
PRIMVEC
        7.60600008     0.00000000     0.00000000
        0.00000000     7.60600008     0.00000000
       -1.89786986    -1.89786986     4.85670466
PRIMCOORD
24 1
Ti      3.75567598     6.48770398     1.28637698    -0.64816815     1.13383043    -0.99445756
Ti      3.77518998     2.82231299     1.27591001    -1.16255249    -1.12933974    -0.81510762
Ti      0.05340801     6.76069398     1.14319902    -0.17517575    -0.49982727     1.47964419
Ti     -0.04975499     2.93645002     1.16214002     1.45458004     0.72512309     0.00360700
Ti      5.73191425     3.01199023     3.56153382     1.11029223    -0.54568625     2.28864724
Ti      5.71446225    -0.94567679     3.56116382     2.27043611     0.27473019     1.08492777
Ti      1.89846223     2.74680220     3.62301882    -1.64354462     0.18226608    -0.36589100
Ti      1.92744823    -1.11239678     3.63615284    -2.08320548     0.15030109     0.98264848
O       3.46271700     4.66123600     0.82103702     1.67230114     0.21529963    -0.66467567
O       3.64007600     0.87671298     1.08520400     0.97388410    -0.24999000    -0.81604171
O       0.11465800     4.95569399     0.70753300    -0.82933226    -2.09142710     0.63238697
O       0.10431698     1.02564399     0.62548301    -0.72519946     0.65070017     1.30294455
O      -1.43599878     4.77893921     4.15520883    -1.10719945     1.32962927    -2.42763496
O       5.73163924     1.12171422     4.14996881    -0.60434136    -0.78199232    -1.89823023
O       1.54991624     4.57870224     4.13272880     1.59815487     1.35557248     0.57527529
O       1.87231822     0.73457920     4.02751884     0.86498833     1.66346194     0.95289541
O       3.74993923     3.03337825     3.20994983     0.36288229    -0.41252774     0.58921402
O       3.83574823     6.34425022     3.21457881    -0.01882023    -0.13929882     0.59097934
O       0.00332524     2.82803922     3.14690481     0.25979027    -0.89363969     0.01763803
O       0.04116523    -0.94693178     3.10823281    -0.66819448     0.35812369     1.80925151
O       5.82711101     6.63556500     1.70696298    -2.58705010     0.16006769    -2.03047085
O       5.72987602     3.18856398     1.70343898    -1.13122616    -0.41797180    -1.91099473
O       1.82272199     6.61119803     1.80556400     2.91911514    -0.00722403    -1.20287126
O       1.87623699     3.00645202     1.59888599    -0.10241453    -1.03018126     0.81631553
