# total energy = -19517.50746653 eV

CRYSTAL
PRIMVEC
        5.17600016     0.00000000     0.00000000
        0.00000000     5.50899976     0.00000000
        0.00000000     0.00000000     9.26300011
PRIMCOORD
23 1
Ti      1.83063800     3.15088899     3.38841501     0.49218286    -0.78232528     3.15595445
Ti      3.33797802     2.25511102     5.84739501    -0.20489077     0.60033893    -2.11499307
Ti      4.36366699     2.09605098     1.38613800     1.44508264    -1.03795525    -0.60204048
Ti      0.76677699     3.49213402     7.73451300     1.23096983    -0.85296250     0.54716541
Ti      2.08764002     0.24437702     1.38761398    -0.49683090     0.32490323    -1.22688075
Ti      3.12708803     5.29204799     7.84818700     0.24526662    -0.44120198     1.24845617
Ti      0.78542202     0.50562399     5.91111198    -1.24839446     0.08565042    -2.35671671
Ti      4.52268401     4.94101599     3.34114398     0.54076002    -0.03583811     3.42607568
O       1.61009402     1.79388902     4.77423101     0.36619336     0.16196028    -0.06496280
O       3.53647600     3.50919401     4.50843798    -0.21609719    -0.31701997     0.11535181
O       0.28436102     2.75164000     0.05937702    -0.74244205    -0.21532303    -0.04298115
O       3.46654698     0.90968803     0.12311700    -0.26420794     0.81839530     1.18221141
O       1.99325502     4.56609401     9.16319199    -0.66188627     0.01272054     0.11018158
O       4.26005101     0.61993702     4.85380699    -0.43086666     0.59444236    -0.14937909
O       0.84793002     4.51729699     4.49183102     1.03637582     0.97213627     1.08593333
O       0.21860900     3.32332600     2.58291400    -1.05451984    -0.74557186    -1.46995242
O       4.96308400     2.14878402     6.74624401     0.58730703     0.22570155     0.25131257
O       2.84656900     1.75639200     2.51779800    -0.51934118    -0.15769996    -1.46563707
O       2.60184902     3.67780702     6.94863203    -0.81710871    -0.39316039    -0.01939898
O       0.18003197     0.49294702     1.91999201     0.86318496     0.74965760    -0.06049962
O       4.94117199     4.97750498     7.33110801     0.13686887    -0.05975400     0.05005374
O       2.21718097     1.13199100     7.09361299    -0.33716045     0.17120494    -0.50915626
O       2.85739602     4.49398101     2.45154601     0.04955443     0.32170040    -1.09009749
