# total energy = -19902.35739285 eV

CRYSTAL
PRIMVEC
        8.15181053     0.00000000     0.00000000
        0.00003076     5.20559471     0.00000000
        0.00000000     0.00000000    12.45008903
PRIMCOORD
24 1
Ti      2.95465723     3.08483059     4.61889425     0.53247695    -0.58572631     2.12572923
Ti      5.19718352     2.12076406     7.83119491    -0.53247695     0.58572631    -2.12572923
Ti      7.03042224     2.12076581     1.60610059     0.53166705     0.58569855    -2.12623548
Ti      1.12141858     3.08482903    10.84398864    -0.53166705    -0.58569855     2.12623548
Ti      2.95464212     0.48203329     1.60615053     0.53258853    -0.61129183    -2.12672271
Ti      5.19719864     4.72356149    10.84393877    -0.53258853     0.61129183     2.12672271
Ti      1.12140340     0.48203141     7.83114497    -0.53122791    -0.61146281    -2.12799849
Ti      7.03043736     4.72356337     4.61894413     0.53122791     0.61146281     2.12799849
O       2.58011018     1.83297834     6.35318516     0.70100125     1.48840574    -1.95777957
O       5.57173064     3.37261624     6.09690400    -0.70100125    -1.48840574     1.95777957
O       1.49586412     1.83299936     0.12818065    -0.70036388     1.48827050    -1.95787367
O       6.65597677     3.37259529    12.32190812     0.70036388    -1.48827050     1.95787367
O       5.57171553     0.76981882     0.12814024    -0.70056005    -1.48861195    -1.95701775
O       2.58012530     4.43577576    12.32194852     0.70056005     1.48861195     1.95701775
O       6.65596159     0.76979786     6.35322550     0.69973524    -1.48880118    -1.95767004
O       1.49587910     4.43579678     6.09686360    -0.69973524     1.48880118     1.95767004
O       0.29619273     3.16633780     3.36307965    -2.18111801     0.70458126     0.20468508
O       7.85564809     2.03925678     9.08700945     2.18111801    -0.70458126    -0.20468508
O       4.37210738     2.03920839     2.86200447    -2.18193100    -0.70445682    -0.20401891
O       3.77973338     3.16638626     9.58808443     2.18193100     0.70445682     0.20401891
O       0.29617755     0.56354038     2.86196473    -2.18149905     0.70446350    -0.20440612
O       7.85566321     4.64205421     9.58812417     2.18149905    -0.70446350     0.20440612
O       3.77971826     0.56358884     9.08704912     2.18253264     0.70439177    -0.20532966
O       4.37212249     4.64200574     3.36303991    -2.18253264    -0.70439177     0.20532966
