# total energy = -4989.33206867 eV

CRYSTAL
PRIMVEC
        3.94772638     0.00000000     0.00000000
        0.97173925     3.82626011     0.00000000
       -2.45976876    -1.91315801     5.07862650
PRIMCOORD
6 1
Ti      0.72867625     2.86984161     1.26965654    -0.00008767     0.00008767     0.00000000
Ti      1.73102081    -0.95673937     3.80896963     0.00008767    -0.00008767     0.00000000
O       0.24297621     0.95655958     0.82726670    -0.00051653    -0.00065486    -0.94389654
O       2.21672067     0.95654257     4.25135947     0.00051653     0.00065486     0.94389654
O      -0.24294800    -0.95653764     3.36657978    -0.00065486    -0.00051653    -0.94389654
O       2.70264487     2.86963973     1.71204639     0.00065486     0.00051653     0.94389654
