# total energy = -19927.80730072 eV

CRYSTAL
PRIMVEC
        7.37544762     0.00000000     0.00000000
        0.00002783     4.70982379     0.00000000
        0.00000000     0.00000000    11.26436627
PRIMCOORD
24 1
Ti      2.67326130     2.79103720     4.17899956     0.49045148    -0.10590198     1.58329646
Ti      4.70221366     1.91878653     7.08536682    -0.49045148     0.10590198    -1.58329646
Ti      6.36085822     1.91878812     1.45313863     0.48978042     0.10567675    -1.58314836
Ti      1.01461681     2.79103579     9.81122782    -0.48978042    -0.10567675     1.58314836
Ti      2.67324763     0.43612536     1.45318381     0.49030158    -0.10533145    -1.58330185
Ti      4.70222734     4.27369849     9.81118270    -0.49030158     0.10533145     1.58330185
Ti      1.01460307     0.43612366     7.08532164    -0.48985704    -0.10512602    -1.58349674
Ti      6.36087189     4.27370019     4.17904469     0.48985704     0.10512602     1.58349674
O       2.33438540     1.65840897     5.74811991     1.04731972     1.04706647    -1.30157106
O       5.04108963     3.05141470     5.51624648    -1.04731972    -1.04706647     1.30157106
O       1.35340087     1.65842799     0.11597297    -1.04760691     1.04769125    -1.30286176
O       6.02207422     3.05139574    11.14839306     1.04760691    -1.04769125     1.30286176
O       5.04107595     0.69650274     0.11593641    -1.04735237    -1.04715491    -1.30156001
O       2.33439908     4.01332093    11.14842961     1.04735237     1.04715491     1.30156001
O       6.02206048     0.69648378     5.74815640     1.04769099    -1.04776246    -1.30299211
O       1.35341442     4.01333995     5.51620992    -1.04769099     1.04776246     1.30299211
O       0.26798390     2.86478182     3.04278635    -1.92880477     0.68117933     0.59737290
O       7.10749113     1.84504185     8.22157998     1.92880477    -0.68117933    -0.59737290
O       3.95571620     1.84499806     2.58943262    -1.92804809    -0.68131919    -0.59825196
O       3.41975877     2.86482566     8.67493353     1.92804809     0.68131919     0.59825196
O       0.26797016     0.50986986     2.58939666    -1.92904645     0.68125389    -0.59760816
O       7.10750480     4.19995380     8.67496948     1.92904645    -0.68125389     0.59760816
O       3.41974510     0.50991371     8.22161587     1.92828592     0.68110168    -0.59794574
O       3.95572987     4.19990996     3.04275040    -1.92828592    -0.68110168     0.59794574
