# total energy = -19908.17379094 eV

CRYSTAL
PRIMVEC
        7.76362889     0.00000000     0.00000000
        0.00003055     5.50856584     0.00000000
        0.00000000     0.00000000    12.06179569
PRIMCOORD
24 1
Ti      2.81396029     3.26437099     4.47484017     0.56974305    -0.68037663     1.59324817
Ti      4.94969928     2.24419484     7.58695566    -0.56974305     0.68037663    -1.59324817
Ti      6.69564090     2.24419676     1.55600952     0.56944865     0.68034397    -1.59365980
Ti      1.06801867     3.26436934    10.50578637    -0.56944865    -0.68034397     1.59365980
Ti      2.81394502     0.51008821     1.55605787     0.56974305    -0.68037663    -1.59324817
Ti      4.94971456     4.99847783    10.50573802    -0.56974305     0.68037663     1.59324817
Ti      1.06800339     0.51008615     7.58690724    -0.56944865    -0.68034397    -1.59365980
Ti      6.69565618     4.99847988     4.47488852     0.56944865     0.68034397     1.59365980
O       2.45724838     1.93965970     6.15504204     0.72097385     1.48446347    -1.60822742
O       5.30641119     3.56890620     5.90675379    -0.72097385    -1.48446347     1.60822742
O       1.42463313     1.93968190     0.12418295    -0.72071134     1.48454292    -1.60886454
O       6.33902658     3.56888400    11.93761248     0.72071134    -1.48454292     1.60886454
O       5.30639598     0.81462322     0.12414379    -0.72097385    -1.48446347    -1.60822742
O       2.45726359     4.69394262    11.93765164     0.72097385     1.48446347     1.60822742
O       6.33901130     0.81460108     6.15508113     0.72071134    -1.48454292    -1.60886454
O       1.42464821     4.69396488     5.90671463    -0.72071134     1.48454292     1.60886454
O       0.28208933     3.35062200     3.25819195    -1.88685721     0.54414488     0.15332985
O       7.48157024     2.15794390     8.80360387     1.88685721    -0.54414488    -0.15332985
O       4.16391246     2.15789253     2.77274432    -1.88684126    -0.54390756    -0.15337973
O       3.59974712     3.35067337     9.28905130     1.88684126     0.54390756     0.15337973
O       0.28207405     0.59633902     2.77270576    -1.88685721     0.54414488    -0.15332985
O       7.48158552     4.91222682     9.28908980     1.88685721    -0.54414488     0.15332985
O       3.59973191     0.59639039     8.80364230     1.88684126     0.54390756    -0.15337973
O       4.16392767     4.91217552     3.25815346    -1.88684126    -0.54390756     0.15337973
