# total energy = -19071.83789261 eV

CRYSTAL
PRIMVEC
        7.60600008     0.00000000     0.00000000
        0.00000000     7.60600008     0.00000000
       -1.89786986    -1.89786986     4.85670466
PRIMCOORD
22 1
Ti      4.12686700     6.63699700     1.15808002    -0.30583438     0.97151997     0.84545231
Ti      3.41789601     2.77569798     1.16292998    -0.30094928    -0.35459331    -0.62154257
Ti      0.15641199     6.64784598     1.07376800    -0.74589967    -1.74479650     1.24297663
Ti     -0.19271799     2.80283498     1.17131400    -0.39422559     1.99654925     0.38759883
Ti      5.40158424     2.98455223     3.54915483    -0.58265436    -1.81506838    -0.14937729
Ti     -1.33307576    -0.53701775     3.93858981     0.39896568     1.47167120    -2.39045705
Ti      1.88388022     2.72948721     3.86227684     0.10745647     0.05945113     0.38233501
Ti      2.06447423    -0.99429378     3.74209380    -0.86426508     1.32389031     0.79479667
O       3.35029600     4.76954599     0.74526302     0.91943275     0.75799517     2.26163780
O       3.77455401     0.95627901     0.88425698    -0.30444367    -2.38688708     1.05794327
O      -0.20218699     4.66950699     0.72468099     0.95373796     2.42034922     1.00729431
O       0.03641999     0.97401100     0.70752898    -0.90089020    -2.12324992     2.56571662
O       5.47110421     4.81499925     4.13116884     0.81485051    -0.10754491    -1.64769696
O       5.14051322     1.06543023     4.18516783     0.34194245    -1.95460426    -3.10781901
O       2.35222621     4.83840423     4.19709882     0.14795959    -2.01356533    -0.71521046
O       1.96026124     0.85721021     4.16290481     1.50579695     0.13673106    -1.16493874
O       3.53638922     2.62662123     3.12209582     0.59411454     1.35296255    -0.56084137
O       0.40011923     2.52888124     2.98048884    -2.40957090     1.07844654    -1.13022626
O       5.93569898     6.60375700     1.86380900    -0.70438457     0.58720007     0.74242123
O       5.44044400     2.70500900     1.60796101     1.65288133     1.03985092     1.13636400
O       1.90340400     6.60943301     1.98133302     0.05475346     0.18495572    -2.17199805
O       1.66559201     2.70503700     0.25392898     0.02122601    -0.88126316     1.23557108
