# total energy = -19075.83613283 eV

CRYSTAL
PRIMVEC
        7.60600008     0.00000000     0.00000000
        0.00000000     7.60600008     0.00000000
       -1.89786986    -1.89786986     4.85670466
PRIMCOORD
22 1
Ti      3.80861900     6.77803401     1.20354502    -0.10064561    -0.91800321    -0.07851689
Ti      3.82748401     2.96641097     1.13827598     0.11359986    -0.30900275     0.30432668
Ti     -0.05919102     6.53826798     1.09252199     0.04194911    -0.09716202     0.75076369
Ti      0.00479900     2.74103899     1.18510499    -0.17524234     0.54386462    -0.14016066
Ti      5.76706125     2.73982722     3.59242083    -0.39157916     0.71211819     0.00856101
Ti      6.12665725    -0.98545377     3.75245382    -1.36194110    -0.73143618    -0.87151765
Ti      1.95592923     2.97796524     3.62302480    -0.20068753    -1.26670844    -0.44830414
Ti      1.47588424    -0.91494276     3.81419082    -0.15267371     0.40005300    -1.46482641
O       3.58220300     4.77889502     0.69102299     0.61323481     0.25578012     0.51775326
O       4.09161099     0.97534098     0.71283901    -0.45843018     0.37409719     1.87071144
O       0.03207100     4.66908899     0.73873398     0.24085923    -0.61560460    -0.03276769
O       7.25767101     0.77662498     0.64495800     0.76799266     1.77287502     1.60625102
O       5.76649524     4.68230022     4.09087479     0.55214204     0.31805715    -1.44990012
O       5.47082322     0.83120723     3.97127481     1.20253188     0.11974429     0.10403330
O       2.04078021     4.78971924     4.19384179    -0.37229639     0.49854352    -1.09394464
O       1.70007722     0.93212424     3.97282683     0.41010062     0.63302332     0.42281807
O       3.87047623     2.96906723     3.16205082    -0.86715551    -0.30960182     0.21591310
O       0.06607625     2.99253624     3.23231281    -0.43004185    -0.62475953    -0.84332395
O       5.61248302     6.49046999     1.77960600     0.54904643     0.08718023     0.93433486
O       5.72956401     3.07607100     1.61358500     0.22444710    -0.85669369    -0.06130695
O       1.87516599     6.64524100     1.96832399     0.40652447     0.10430172    -0.69086879
O       1.94574501     2.72863798     1.54335699    -0.61173483    -0.09066664     0.43997145
