# total energy = -19924.26457328 eV

CRYSTAL
PRIMVEC
        7.32886567     0.00000000     0.00000000
        0.00002884     5.20008615     0.00000000
        0.00000000     0.00000000    11.38633514
PRIMCOORD
24 1
Ti      2.65637852     3.08156622     4.22424912     0.55510266    -0.46241770     1.30542746
Ti      4.67251612     2.11851993     7.16208614    -0.55510266     0.46241770    -1.30542746
Ti      6.32068501     2.11852174     1.46887299     0.55586602     0.46223850    -1.30501403
Ti      1.00820963     3.08156465     9.91746234    -0.55586602    -0.46223850     1.30501403
Ti      2.65636410     0.48152327     1.46891863     0.55537392    -0.47731314    -1.30469984
Ti      4.67253054     4.71856307     9.91741669    -0.55537392     0.47731314     1.30469984
Ti      1.00819520     0.48152133     7.16204043    -0.55600975    -0.47739953    -1.30552902
Ti      6.32069943     4.71856501     4.22429477     0.55600975     0.47739953     1.30552902
O       2.31964247     1.83103876     5.81035968     0.82925795     1.29418403    -1.34549067
O       5.00925217     3.36904745     5.57597558    -0.82925795    -1.29418403     1.34549067
O       1.34485368     1.83105971     0.11722871    -0.82835652     1.29450721    -1.34641318
O       5.98404109     3.36902650    11.26910618     0.82835652    -1.29450721     1.34641318
O       5.00923781     0.76900432     0.11719174    -0.82849922    -1.29408709    -1.34505255
O       2.31965683     4.43108183    11.26914315     0.82849922     1.29408709     1.34505255
O       5.98402667     0.76898342     5.81039659     0.82801508    -1.29524101    -1.34682147
O       1.34486791     4.43110285     5.57593861    -0.82801508     1.29524101     1.34682147
O       0.26629233     3.16298717     3.07573320    -1.81178276     0.51758486     0.28706275
O       7.06260231     2.03709904     8.31060206     1.81178276    -0.51758486    -0.28706275
O       3.93073336     2.03705055     2.61747064    -1.81243531    -0.51802451    -0.28696376
O       3.39816128     3.16303566     8.76886443     1.81243531     0.51802451     0.28696376
O       0.26627791     0.56294403     2.61743424    -1.81247285     0.51788645    -0.28740573
O       7.06261673     4.63714211     8.76890077     1.81247285    -0.51788645     0.28740573
O       3.39814692     0.56299252     8.31063834     1.81312745     0.51757226    -0.28785439
O       3.93074772     4.63709369     3.07569686    -1.81312745    -0.51757226     0.28785439
