# total energy = -4985.96149766 eV

CRYSTAL
PRIMVEC
        4.11262729     0.00000000     0.00000000
        1.76149831     3.71629209     0.00000000
       -2.93710174    -1.85817068     5.39366902
PRIMCOORD
6 1
Ti      1.32101984     2.78736211     1.34841720     0.00044017    -0.00044017     0.00000000
Ti      1.61600430    -0.92924047     4.04525149    -0.00044017     0.00044017     0.00000000
O       0.44041730     0.92906814     0.87858454    -0.00047180    -0.00072917    -2.01467065
O       2.49660670     0.92905336     4.51508420     0.00047180     0.00072917     2.01467065
O      -0.44038024    -0.92904475     3.57541889    -0.00072917    -0.00047180    -2.01467065
O       3.37740417     2.78716620     1.81824986     0.00072917     0.00047180     2.01467065
