# total energy = -4981.98114730 eV

CRYSTAL
PRIMVEC
        2.78600694     0.00000000     0.00000000
        1.48243948     4.10582830     0.00000000
       -0.00000963    -0.00005784     4.43575431
PRIMCOORD
6 1
Ti      2.13421839     2.05288518     2.21787715     0.00000000     0.00000000     0.00000000
Ti      0.00000000     0.00000000     0.00000000     0.00000000     0.00000000     0.00000000
O       1.68190719     0.80015418     0.86446319    -7.15557430     3.13194728     3.93210728
O       2.58652959     3.30561618     3.57129116     7.15557430    -3.13194728    -3.93210728
O       0.45230715     1.25270762     3.08234123     7.15287515    -3.12884216     3.92800508
O       1.03012278     2.85306273     1.35341312    -7.15287515     3.12884216    -3.92800508
