# total energy = -4986.96598608 eV

CRYSTAL
PRIMVEC
        3.55720822     0.00000000     0.00000000
        0.00000000     4.56022804     0.00000000
        0.00000000    -0.00006696     5.11810114
PRIMCOORD
6 1
Ti      1.77860411     2.28008048     2.55905068     0.00000000     0.00000000     0.00000000
Ti      0.00000000     0.00000000     0.00000000     0.00000000     0.00000000     0.00000000
O       1.77860411     0.88870822     0.99744259    -0.00000000     0.18249157     0.14929013
O       1.77860411     3.67145274     4.12065877    -0.00000000    -0.18249157    -0.14929013
O       0.00000000     1.39134517     3.55649419    -0.00000000    -0.18199843     0.14899368
O       0.00000000     3.16881579     1.56160717    -0.00000000     0.18199843    -0.14899368
