# total energy = -4982.36796069 eV

CRYSTAL
PRIMVEC
        2.91934365     0.00000000     0.00000000
        1.95919413     4.13335521     0.00000000
       -0.00001280    -0.00006146     4.70057534
PRIMCOORD
6 1
Ti      2.43926239     2.06664690     2.35028757     0.00000000     0.00000000     0.00000000
Ti      0.00000000     0.00000000     0.00000000     0.00000000     0.00000000     0.00000000
O       1.84148734     0.80551813     0.91607287    -6.41528940     2.86700555     3.68413611
O       3.03703739     3.32777568     3.78450226     6.41528940    -2.86700555    -3.68413611
O       0.59776970     1.26110397     3.26636141     6.41396503    -2.86664508     3.68277420
O       1.36141151     2.87218971     1.43421372    -6.41396503     2.86664508    -3.68277420
