# total energy = -19075.15859968 eV

CRYSTAL
PRIMVEC
        7.60600008     0.00000000     0.00000000
        0.00000000     7.60600008     0.00000000
       -1.89786986    -1.89786986     4.85670466
PRIMCOORD
22 1
Ti      3.64032201     6.64527302     1.39816101     1.12790198     0.92971022    -2.54975572
Ti      3.85002300     2.95724499     1.22791501     1.36727357    -0.97404480     0.32661096
Ti      0.07859600     6.52657200     0.96805098    -1.15913961     0.48503648     0.62831742
Ti      0.16986198     2.68836902     1.04586502    -0.58342646     0.47110212     1.07945209
Ti      5.82635323     2.77827021     3.54999183     0.02650577     1.32170152    -1.39968388
Ti      5.96797424    -0.95521579     3.56340583    -0.51164278    -1.57026327    -0.54422844
Ti      1.95841822     2.96108422     3.75984580    -0.09189229    -0.22813355    -0.83233839
Ti      1.28938022    -0.82151175     3.91229081     1.39110694    -0.50295090    -0.22791038
O       3.45167699     4.79476102     0.89395601     0.47558304     0.46141703    -0.48612688
O       3.97693198     0.97342298     0.81058699    -1.11831408    -0.13811663     1.23548263
O       0.26486602     4.64363202     0.64739301    -0.25663039     0.01790774     0.19591788
O       7.24442099     0.82331799     0.58187002     1.14265240     0.97708975     0.70854873
O       5.69206821     4.69344025     3.89152981     0.53851519     0.30342680     0.32205213
O       5.79016322     0.86796124     3.83395479     0.07202717     0.36202046     0.52821920
O       1.89324422     4.83048620     4.26302282    -0.74732021     0.19767780    -0.21099329
O       2.06722521     0.97123324     4.05781979    -1.06376682     0.22537193     0.51392669
O       3.80692722     3.02830222     3.24218783     0.84543200    -0.45794398     0.22455586
O       0.13120225     3.05246424     3.19017580    -0.35758248    -1.05811296    -0.86138724
O       5.52467801     6.44399701     1.65883198     0.81299495     0.12762395     1.12071934
O       5.78738398     2.99335202     1.52233902     0.48342697    -0.44804600     0.66754605
O       1.71584998     6.73599501     2.02774801     0.39146191    -0.15931821    -0.32907022
O       2.07251799     2.66764602     1.62242702    -2.78516679    -0.34315524    -0.10985428
