# total energy = -19914.03898601 eV

CRYSTAL
PRIMVEC
        7.82573802     0.00000000     0.00000000
        0.00002563     3.56955066     0.00000000
        0.00000000     0.00000000    11.91016161
PRIMCOORD
24 1
Ti      2.83646870     2.11531243     4.41858501    -0.09807914     0.03427925     2.20440810
Ti      4.98929461     1.45423829     7.49157677     0.09807914    -0.03427925    -2.20440810
Ti      6.74920376     1.45423950     1.53644824    -0.09802360    -0.03430701    -2.20499534
Ti      1.07655954     2.11531133    10.37371365     0.09802360     0.03430701     2.20499534
Ti      2.83645605     0.33053716     1.53649602    -0.09807914     0.03427925    -2.20440810
Ti      4.98930725     3.23901362    10.37366588     0.09807914    -0.03427925     2.20440810
Ti      1.07654690     0.33053583     7.49152899     0.09802360     0.03430701    -2.20499534
Ti      6.74921640     3.23901495     4.41863279    -0.09802360    -0.03430701     2.20499534
O       2.47690442     1.25689946     6.07766435     2.97246864     0.37778493    -0.97542137
O       5.34885888     2.31265120     5.83249743    -2.97246864    -0.37778493     0.97542137
O       1.43602820     1.25691386     0.12262178    -2.97446124     0.37809449    -0.97741063
O       6.38973515     2.31263686    11.78753966     2.97446124    -0.37809449     0.97741063
O       5.34884629     0.52787587     0.12258314    -2.97246864    -0.37778493    -0.97542137
O       2.47691701     3.04167485    11.78757829     2.97246864     0.37778493     0.97542137
O       6.38972257     0.52786147     6.07770298     2.97446124    -0.37809449    -0.97741063
O       1.43604067     3.04168924     5.83245880    -2.97446124     0.37809449     0.97741063
O       0.28434263     2.17120304     3.21723181    -1.14763469     0.26222408     0.28087950
O       7.54142067     1.39834762     8.69292997     1.14763469    -0.26222408    -0.28087950
O       4.19722159     1.39831436     2.73788694    -1.14465967    -0.26212201    -0.28118186
O       3.62854171     2.17123636     9.17227467     1.14465967     0.26212201     0.28118186
O       0.28433005     0.38642771     2.73784894    -1.14763469     0.26222408    -0.28087950
O       7.54143325     3.18312301     9.17231267     1.14763469    -0.26222408     0.28087950
O       3.62852912     0.38646097     8.69296792     1.14465967     0.26212201    -0.28118186
O       4.19723418     3.18308975     3.21719380    -1.14465967    -0.26212201     0.28118186
