# total energy = -4984.89161713 eV

CRYSTAL
PRIMVEC
        3.32987635     0.00000000     0.00000000
        2.23470580     4.71460829     0.00000000
       -0.00001460    -0.00007011     5.36159374
PRIMCOORD
6 1
Ti      2.78228366     2.35726912     2.68079676     0.00000000     0.00000000     0.00000000
Ti      0.00000000     0.00000000     0.00000000     0.00000000     0.00000000     0.00000000
O       2.10044650     0.91879412     1.04489562     0.45901382     0.27599928    -0.37338268
O       3.46412077     3.79574413     4.31669789    -0.45901382    -0.27599928     0.37338268
O       0.68183106     1.43844671     3.72569349    -0.45971213    -0.27504052    -0.37301964
O       1.55286001     3.27609139     1.63590003     0.45971213     0.27504052     0.37301964
