# total energy = -4976.18137333 eV

CRYSTAL
PRIMVEC
        4.00519735     0.00000000     0.00000000
        0.00000000     2.09184804     0.00000000
        0.00000000    -0.00011033     5.57826065
PRIMCOORD
6 1
Ti      2.00259848     1.04586881     2.78913032     0.00000000     0.00000000     0.00000000
Ti      0.00000000     0.00000000     0.00000000     0.00000000     0.00000000     0.00000000
O       2.00259848     0.40764887     1.08712086     0.00000000    -1.34720893    -1.98904085
O       2.00259848     1.68408880     4.49113984     0.00000000     1.34720893     1.98904085
O       0.00000000     0.63817660     3.87625231     0.00000000     1.34668134    -1.98763600
O       0.00000000     1.45356106     1.70200834     0.00000000    -1.34668134     1.98763600
