# total energy = -19961.94565798 eV

CRYSTAL
PRIMVEC
        5.20325739     0.00000000     0.00000000
        0.27674754     5.53091992     0.00000000
        0.00000000     0.00000000     9.31559860
PRIMCOORD
24 1
Ti      2.04993080     3.27761788     3.45602064     0.26679319    -0.32148932     0.24141382
Ti      3.43007391     2.25330182     5.85957807    -0.26679319     0.32148932    -0.24141382
Ti      4.60022057     2.25330371     1.20174149    -0.30734464    -0.17405166     0.15646917
Ti      0.87978420     3.27761621     8.11385732     0.30734464     0.17405166    -0.15646917
Ti      1.91155715     0.51215814     1.20177882     0.26679319    -0.32148932    -0.24141382
Ti      3.56844757     5.01876173     8.11381999    -0.26679319     0.32148932     0.24141382
Ti      0.74141053     0.51215609     5.85954068     0.30734464     0.17405166     0.15646917
Ti      4.73859424     5.01876378     3.45605802    -0.30734464    -0.17405166    -0.15646917
O       1.74431125     1.94753084     4.75367866     0.16446710     0.23615180    -0.14059980
O       3.73569346     3.58338887     4.56192004    -0.16446710    -0.23615180     0.14059980
O       1.05224389     1.94755316     0.09590930    -0.01631366    -0.07470240     0.14181439
O       4.42776087     3.58336660     9.21968913     0.01631366     0.07470240    -0.14181439
O       3.59731980     0.81792896     0.09587910    -0.16446710    -0.23615180    -0.14059980
O       1.88268491     4.71299075     9.21971934     0.16446710     0.23615180     0.14059980
O       4.28938721     0.81790669     4.75370892     0.01631366     0.07470240     0.14181439
O       1.19061745     4.71301313     4.56188978    -0.01631366    -0.07470240    -0.14181439
O       0.35737991     3.36421890     2.51637563    -0.08063651     0.01325456    -0.02713312
O       5.12262486     2.16670080     6.79922313     0.08063651    -0.01325456     0.02713312
O       2.89909672     2.16664927     2.14145335     0.17823974     0.02096427    -0.10307145
O       2.58090804     3.36427044     7.17414520    -0.17823974    -0.02096427     0.10307145
O       0.21900625     0.59875900     2.14142362    -0.08063651     0.01325456     0.02713312
O       5.26099852     4.93216071     7.17417493     0.08063651    -0.01325456    -0.02713312
O       2.44253438     0.59881053     6.79925280    -0.17823974    -0.02096427    -0.10307145
O       3.03747038     4.93210918     2.51634585     0.17823974     0.02096427     0.10307145
