# total energy = -19942.90285944 eV

CRYSTAL
PRIMVEC
        4.89347198     0.00000000     0.00000000
        1.52808330     4.97891758     0.00000000
        0.00000000     0.00000000     8.86070003
PRIMCOORD
24 1
Ti      2.67918895     2.95050197     3.28725651     2.97454275    -2.17772519     0.96549665
Ti      3.74236624     2.02841572     5.57344357    -2.97454275     2.17772519    -0.96549665
Ti      4.84284652     2.02841743     1.14305812    -5.55835043     0.45143626     2.14766744
Ti      1.57870875     2.95050045     7.71764206     5.55835043    -0.45143626    -2.14766744
Ti      1.91514742     0.46104326     1.14309365     2.97443965    -2.17815173    -0.96217607
Ti      4.50640780     4.51787457     7.71760653    -2.97443965     2.17815173     0.96217607
Ti      0.81466712     0.46104141     5.57340804     5.55823730    -0.45198571     2.14114532
Ti      5.60688810     4.51787643     3.28729204    -5.55823730     0.45198571    -2.14114532
O       2.08687886     1.75316155     4.52154741    -1.28739940    -0.26131262    -0.97199048
O       4.33467634     3.22575618     4.33915268     1.28739940     0.26131262     0.97199048
O       1.43602009     1.75318164     0.09122589     1.48228523    -0.89607838    -0.57764713
O       4.98553517     3.22573614     8.76947394    -1.48228523     0.89607838     0.57764713
O       3.57063479     0.73629733     0.09119714     1.28749941     0.26081254    -0.97213729
O       2.85092042     4.24262041     8.76950269    -1.28749941    -0.26081254     0.97213729
O       4.22149361     0.73627729     4.52157615    -1.48310567     0.89669467    -0.57787442
O       2.20006155     4.24264051     4.33912393     1.48310567    -0.89669467     0.57787442
O       1.10725804     3.02845995     2.39349613    -0.43804466    -1.84276945    -2.12175919
O       5.31429716     1.95045779     6.46720395     0.43804466     1.84276945     2.12175919
O       3.22313901     1.95041136     2.03688208     1.60507808    -2.29664364    -2.63508553
O       3.19841620     3.02850638     6.82381785    -1.60507808     2.29664364     2.63508553
O       0.34321644     0.53900111     2.03685378    -0.43812565    -1.84323122     2.12197748
O       6.07833872     4.43991664     6.82384615     0.43812565     1.84323122    -2.12197748
O       2.43437464     0.53904752     6.46723220    -1.60601833     2.29698971    -2.63534906
O       3.98718056     4.43987022     2.39346783     1.60601833    -2.29698971     2.63534906
