# total energy = -4990.50342403 eV

CRYSTAL
PRIMVEC
        3.82693845     0.00000000     0.00000000
        0.38173062     3.80785237     0.00000000
       -2.10436848    -1.90395689     4.89015682
PRIMCOORD
6 1
Ti      0.28615132     2.85603413     1.22253896    -0.00021906     0.00021906     0.00000000
Ti      1.81814893    -0.95213896     3.66761727     0.00021906    -0.00021906     0.00000000
O       0.09547300     0.95195707     0.79656650    -0.00025120    -0.00019618    -0.18081033
O       2.00882715     0.95193800     4.09358983     0.00025120     0.00019618     0.18081033
O      -0.09545182    -0.95193791     3.24164480    -0.00019618    -0.00025120    -0.18081033
O       2.19975191     2.85583293     1.64851153     0.00019618     0.00025120     0.18081033
