# total energy = -19900.88705622 eV

CRYSTAL
PRIMVEC
        6.74883799     0.00000000     0.00000000
        3.38017205     6.33775396     0.00000000
        0.00000000     0.00000000    12.49949415
PRIMCOORD
24 1
Ti      4.44921603     3.75574713     4.63722320    -0.11855053    -2.07640003     0.28420111
Ti      5.67979419     2.58200699     7.86227108     0.11855053     2.07640003    -0.28420111
Ti      7.19752346     2.58200925     1.61247400    -0.36186568    -1.49545057     0.54847744
Ti      2.93148697     3.75574517    10.88702035     0.36186568     1.49545057    -0.54847744
Ti      2.75913026     0.58687036     1.61252414    -0.11855053    -2.07640003    -0.28420111
Ti      7.36988008     5.75088400    10.88697027     0.11855053     2.07640003     0.28420111
Ti      1.24140088     0.58686793     7.86222094     0.36186568     1.49545057     0.54847744
Ti      8.88760945     5.75088637     4.63727327    -0.36186568    -1.49545057    -0.54847744
O       3.32626594     2.23163096     6.37839621     1.73926683     1.91267932    -0.87697353
O       6.80274436     4.10612321     6.12109807    -1.73926683    -1.91267932     0.87697353
O       2.42863835     2.23165647     0.12868930     0.25156737    -1.26475645     1.86363962
O       7.70037203     4.10609775    12.37080458    -0.25156737     1.26475645    -1.86363962
O       5.11265846     0.93724620     0.12864874    -1.73926683    -1.91267932    -0.87697353
O       5.01635182     5.40050790    12.37084514     1.73926683     1.91267932     0.87697353
O       6.01028613     0.93722074     6.37843671    -0.25156737     1.26475645     1.86363962
O       4.11872409     5.40053345     6.12105750     0.25156737    -1.26475645    -1.86363962
O       2.30121312     3.85498118     3.37642521     0.63285388     3.26381304     3.02713468
O       7.82779718     2.48277299     9.12306901    -0.63285388    -3.26381304    -3.02713468
O       4.94376174     2.48271379     2.87336163     0.44294416     2.19020867     2.13293398
O       5.18524855     3.85504038     9.62613238    -0.44294416    -2.19020867    -2.13293398
O       0.61112722     0.68610417     2.87332173     0.63285388     3.26381304    -3.02713468
O       9.51788305     5.65164993     9.62617228    -0.63285388    -3.26381304     3.02713468
O       3.49516266     0.68616336     9.12310884    -0.44294416    -2.19020867     2.13293398
O       6.63384762     5.65159074     3.37638531     0.44294416     2.19020867    -2.13293398
