# total energy = -4983.76921181 eV

CRYSTAL
PRIMVEC
        4.00816382     0.00000000     0.00000000
        0.00000000     2.69151074     0.00000000
        0.00000000    -0.00008626     5.34029948
PRIMCOORD
6 1
Ti      2.00408191     1.34571219     2.67014964     0.00000000     0.00000000     0.00000000
Ti      0.00000000     0.00000000     0.00000000     0.00000000     0.00000000     0.00000000
O       2.00408191     0.52451898     1.04074570    -0.00000000    -1.29979855     0.26368730
O       2.00408191     2.16690544     4.29955358    -0.00000000     1.29979855    -0.26368730
O       0.00000000     0.82115900     3.71089635    -0.00000000     1.29967436     0.26716343
O       0.00000000     1.87026538     1.62940287    -0.00000000    -1.29967436    -0.26716343
