# total energy = -19069.72215840 eV

CRYSTAL
PRIMVEC
        5.17600016     0.00000000     0.00000000
        0.00000000     5.50899976     0.00000000
        0.00000000     0.00000000     9.26300011
PRIMCOORD
22 1
Ti      1.77397301     3.29905597     3.20451899    -0.62973359     1.32734381     0.60724106
Ti      3.50719298     2.48694501     5.92406301    -1.41579956    -1.46009095     2.26050240
Ti      4.29331102     2.19521499     1.46276498     1.52485912     0.05006403    -0.39615546
Ti      1.03902000     2.78975102     7.83255499     0.35887497     0.35001649     2.47756349
Ti      1.88360801     0.59683500     1.20756899    -0.47089695    -1.97702017    -2.54055554
Ti      3.29947101     5.36406600     7.97635801    -0.05071246     0.70645585    -2.88905688
Ti      0.78567602     5.18315400     6.24220299     2.39672489     1.26095302     1.05420565
Ti      4.41070302     5.16866698     3.61510799    -0.07897840    -2.67906606    -0.39144957
O       3.45811602     3.00382799     4.23900601    -0.77191719     0.43082680     0.45664712
O       0.76156401     1.87383802     0.34835802    -1.42895359     1.46801946    -1.87552558
O       4.91782701     4.39995601     7.52309801    -1.83379450    -0.68355631    -0.27188372
O       3.60580299     0.69520799     0.23314502     0.14046765     1.16117644     2.08529014
O       1.58480098     5.09577202     8.42421098    -0.53484365     1.70296721     4.43758532
O       4.56444398     0.37699201     5.28350601    -2.38209634     1.84156566     0.42901135
O       1.14205103     4.48744499     4.57291299    -0.25032424    -0.51519141     0.38167578
O       5.07129202     3.64336700     2.61550401     0.57577563    -0.07985849    -1.71430861
O       4.74185399     2.04623100     7.30709601    -1.94169783    -2.09054804    -1.59905630
O       2.36928102     2.18035098     1.87227002     1.79211228     1.04452853     1.25190890
O       2.47268098     3.80594100     7.12777398     1.99246659    -2.82860945    -4.17569934
O       5.03224397     1.05715702     2.65807299     1.22420371    -0.53661951    -0.07016029
O       2.05820999     1.24385600     6.52925699     0.89442464     0.39231783     0.01809029
O       2.48478099     4.68194297     2.28179098     0.88983857     1.11432527     0.46412980
