# total energy = -19518.54123985 eV

CRYSTAL
PRIMVEC
        7.60600008     0.00000000     0.00000000
        0.00000000     7.60600008     0.00000000
       -1.89786986    -1.89786986     4.85670466
PRIMCOORD
23 1
Ti      3.72796001     6.66559798     1.29362501     1.13645219    -1.03673886    -0.38277415
Ti      3.77525798     2.84504401     1.17282999     0.14083763     1.26881391    -0.32021996
Ti     -0.00048399     6.58626198     1.23249297    -0.88686945    -0.69937503    -0.02800035
Ti     -0.04019001     2.79505401     1.11813798     0.03026164     1.05432289     0.01675409
Ti      5.53652920     2.95278223     3.56768180     1.46309940    -1.52824140     2.28814408
Ti      5.79176224    -1.00524077     3.71698784    -0.92164981     1.36771272    -1.92819670
Ti      2.11837824     2.91860722     3.62116183    -2.53716246     0.47612477     2.15330664
Ti      1.85816623    -0.89993677     3.63452382     1.23431818    -0.90032430     0.41776971
O       3.96480599     4.74655700     0.85082399    -0.38277801    -0.60756939    -0.47397147
O       3.65906002     0.97014002     0.78056301    -0.22116278     0.17926201     0.18926720
O       7.29628201     4.70995899     0.75498999     0.71799676     0.44778426     0.07364902
O       0.14928302     0.88844701     0.78564502    -0.01233076    -0.18528816     0.33416537
O       5.77278822     4.74013220     3.96595081     0.58551034    -0.33714117     0.44471154
O       5.77931525     0.94878523     4.09804282    -0.07983278     0.09993676    -0.61722877
O       1.90817120     4.78134924     4.09622880    -0.60355049    -0.31019086     0.29829770
O       2.00298722     1.02853325     3.90723283    -0.46669782    -0.46807079     1.03512729
O       3.79180122     2.94059025     3.14670680     1.13289481     0.05690959    -0.32345467
O       3.75571424    -1.04287675     3.26980279     0.86429696     0.67509995    -0.11474092
O       0.05996224    -0.73098275     3.16409080    -1.08368259    -0.53871959     0.30916833
O       5.71018401     6.58790301     1.67651698    -0.00284261     0.77200666     0.17802299
O       5.69241101     2.61399999     1.73813702     1.20358397    -0.04264330    -1.63086574
O       1.87877599     6.28707601     1.64935500    -0.11997517     0.79419889    -0.25257550
O       1.83758700     3.05978001     1.77779002    -1.19071663    -0.53786984    -1.66635546
