# total energy = -19519.42462762 eV

CRYSTAL
PRIMVEC
        7.60600008     0.00000000     0.00000000
        0.00000000     7.60600008     0.00000000
       -1.89786986    -1.89786986     4.85670466
PRIMCOORD
23 1
Ti      3.79924802     6.64797098     1.19600599    -0.19274719     0.42842822     0.37906636
Ti      3.79418300     2.80832398     1.24135997    -0.32825595    -0.28623305     0.51689914
Ti     -0.02120900     6.61414501     1.18647800     0.00891402     0.85362713    -0.40367903
Ti     -0.00313998     2.83695702     1.15555902     0.19325344    -0.77854472     0.78047100
Ti      5.68715723     2.88930720     3.67237280    -0.72886585     0.33442068    -0.31657645
Ti      5.73780722    -0.89809179     3.59474382    -0.96951168    -0.48668995     0.53690850
Ti      1.98929921     2.85773024     3.72948282     0.33909984    -0.00896775    -0.92020742
Ti      1.86416821    -0.91624379     3.59429883     0.70446247    -0.28246973     0.16309645
O       3.74528898     4.77317599     0.76222998    -0.21335510    -1.04944628     1.05741362
O       3.80743000     0.90059099     0.73360303     0.01927120     1.00101054     0.66202769
O      -0.05945402     4.74577202     0.70382702     0.40072869     0.78320794     1.27989100
O      -0.13136100     0.93549399     0.78510298     0.17732082    -0.53727566    -0.11738890
O       5.76961622     4.80548321     3.92862783     0.08062700    -0.88680878     0.73975782
O       5.85894325     0.95113022     4.17945880     0.37891878     0.23641559    -2.30842186
O       1.96071025     4.76901020     4.03539283    -0.45993299    -0.48587749    -0.24485807
O       1.76959222     0.93362425     4.09022084    -0.15001955     0.54978793     0.30019800
O       3.82590521     2.77627521     3.35130879     0.10076543    -0.02101749    -1.11838504
O       3.75289521    -0.77688877     3.24865179     0.54427369    -0.22582933    -0.75621083
O      -0.02373180    -0.96912775     3.19892680     0.03226350     0.14448705    -0.37458416
O       5.67485100     6.58039001     1.58680799    -0.02767948     0.13176086     0.40173656
O       5.77139299     2.89486399     1.71106601    -0.20648589    -0.20563228    -0.43987992
O       1.84459701     6.58319100     1.58928698     0.33074118     0.18249363     0.08539460
O       1.84670499     2.68047502     1.71889302    -0.03378585     0.60915267     0.09733120
