# total energy = -19909.00000920 eV

CRYSTAL
PRIMVEC
        7.20205934     0.00000000     0.00000000
        0.00003349     6.27150220     0.00000000
        0.00000000     0.00000000    11.83664179
PRIMCOORD
24 1
Ti      2.61041994     3.71648627     4.39130983     0.38112479    -0.91238098     0.99478872
Ti      4.59167295     2.55501567     7.44533243    -0.38112479     0.91238098    -0.99478872
Ti      6.21132483     2.55501769     1.52696400     0.38110371     0.91276202    -0.99507951
Ti      0.99076807     3.71648444    10.30967839    -0.38110371    -0.91276202     0.99507951
Ti      2.61040347     0.58073530     1.52701147     0.38112479    -0.91238098    -0.99478872
Ti      4.59168943     5.69076684    10.30963093    -0.38112479     0.91238098     0.99478872
Ti      0.99075159     0.58073301     7.44528497    -0.38110371    -0.91276202    -0.99507951
Ti      6.21134131     5.69076906     4.39135729     0.38110371     0.91276202     0.99507951
O       2.27950907     2.20830245     6.04014788     0.93990156     1.44058758    -0.89516178
O       4.92258383     4.06319949     5.79649437    -0.93990156    -1.44058758     0.89516178
O       1.32158628     2.20832779     0.12186488    -0.93986582     1.44056084    -0.89579607
O       5.88050669     4.06317421    11.71477705     0.93986582    -1.44056084     0.89579607
O       4.92256736     0.92744832     0.12182645    -0.93990156    -1.44058758    -0.89516178
O       2.27952554     5.34405361    11.71481547     0.93990156     1.44058758     0.89516178
O       5.88049014     0.92742305     6.04018631     0.93986582    -1.44056084    -0.89579607
O       1.32160262     5.34407896     5.79645595    -0.93986582     1.44056084     0.89579607
O       0.26168772     3.81468318     3.19737236    -0.82922761     0.08261189    -0.00154189
O       6.94040518     2.45681876     8.63926990     0.82922761    -0.08261189     0.00154189
O       3.86272459     2.45676047     2.72098642    -0.82950041    -0.08249850     0.00141076
O       3.33936831     3.81474147     9.11565564     0.82950041     0.08249850    -0.00141076
O       0.26167117     0.67893201     2.72094860    -0.82922761     0.08261189     0.00154189
O       6.94042173     5.59256992     9.11569346     0.82922761    -0.08261189    -0.00154189
O       3.33935176     0.67899030     8.63930765     0.82950041     0.08249850     0.00141076
O       3.86274114     5.59251164     3.19733454    -0.82950041    -0.08249850    -0.00141076
