# total energy = -4890.58118296 eV

CRYSTAL
PRIMVEC
        5.29398251     0.00000000     0.00000000
       -0.00000687     2.00806205     0.00000000
       -2.64702300    -1.00412634     5.84265381
PRIMCOORD
6 1
Ti     -0.00022620     1.50610337     1.46066320    -0.05448504    -0.04357739    99.57354918
Ti      2.64717890    -0.50216791     4.38199015     0.05448504     0.04357739   -99.57354918
O       0.00005620     0.50199953     0.95172048     0.05352319     0.04474801   -93.06390952
O       2.64689635     0.50193587     4.89093292    -0.05352319    -0.04474801    93.06390952
O      -0.00002295    -0.50205484     3.87304739    -0.00083175    -0.00004499    -0.18616182
O       2.64697540     1.50599020     1.96960601     0.00083175     0.00004499     0.18616182
