# total energy = -4985.36307375 eV

CRYSTAL
PRIMVEC
        2.68496547     0.00000000     0.00000000
        0.00000000     4.20693836     0.00000000
        0.00000000    -0.00005460     4.20693836
PRIMCOORD
6 1
Ti      1.34248269     2.10344183     2.10346913     0.00000000     0.00000000     0.00000000
Ti      0.00000000     0.00000000     0.00000000     0.00000000     0.00000000     0.00000000
O       1.34248269     0.81985967     0.81987031    -0.00000000     1.60237610     1.60237610
O       1.34248269     3.38702400     3.38706795     0.00000000    -1.60237610    -1.60237610
O       0.00000000     1.28356003     2.92334030     0.00000000    -1.60242033     1.60242033
O       0.00000000     2.92332364     1.28359797     0.00000000     1.60242033    -1.60242033
