# total energy = -4990.03427249 eV

CRYSTAL
PRIMVEC
        3.17745629     0.00000000     0.00000000
        0.00000000     4.50444579     0.00000000
        0.00000000    -0.00006161     4.75340506
PRIMCOORD
6 1
Ti      1.58872815     2.25219193     2.37670253     0.00000000     0.00000000     0.00000000
Ti      0.00000000     0.00000000     0.00000000     0.00000000     0.00000000     0.00000000
O       1.58872815     0.87783807     0.92636863     0.00000000    -0.02298079    -0.11190988
O       1.58872815     3.62654573     3.82703638     0.00000000     0.02298079     0.11190988
O       0.00000000     1.37432890     3.30307212    -0.00000000     0.02232798    -0.11161574
O       0.00000000     3.13005496     1.45033289    -0.00000000    -0.02232798     0.11161574
