# total energy = -19929.92460584 eV

CRYSTAL
PRIMVEC
        4.96031746     0.00000000     0.00000000
        2.26122392     4.77049667     0.00000000
        0.00000000     0.00000000     9.12319605
PRIMCOORD
24 1
Ti      3.13787565     2.82699188     3.38464064     4.71458631    -4.53827130     1.29463345
Ti      4.08366556     1.94350472     5.73855546    -4.71458631     4.53827130    -1.29463345
Ti      5.19917878     1.94350634     1.17692097    -9.85421649     2.42367083     2.39445101
Ti      2.02236253     2.82699045     7.94627528     9.85421649    -2.42367083    -2.39445101
Ti      2.00726381     0.44174362     1.17695753     4.71522420    -4.53788126    -1.29515487
Ti      5.21427744     4.32875313     7.94623872    -4.71522420     4.53788126     1.29515487
Ti      0.89175056     0.44174186     5.73851889     9.85463635    -2.42263956     2.39449780
Ti      6.32979073     4.32875487     3.38467726    -9.85463635     2.42263956    -2.39449780
O       2.36618713     1.67977295     4.65549712    -1.27947088     0.21879222    -1.36550902
O       4.85535409     3.09072365     4.46769903     1.27947088    -0.21879222     1.36550902
O       1.70644042     1.67979222     0.09392843     2.11535174    -0.13262115    -1.88144837
O       5.51510086     3.09070447     9.02926747    -2.11535174     0.13262115     1.88144837
O       3.72474222     0.70547530     0.09389879     1.27946985    -0.21908712    -1.36556276
O       3.49679900     4.06502136     9.02929706    -1.27946985     0.21908712     1.36556276
O       4.38448898     0.70545606     4.65552670    -2.11562222     0.13228228    -1.88170060
O       2.83705219     4.06504060     4.46766940     2.11562222    -0.13228228     1.88170060
O       1.55562434     2.90168653     2.46440286     0.16924344    -3.32744453    -2.90909272
O       5.66591682     1.86881009     6.65879329    -0.16924344     3.32744453     2.90909272
O       3.54618657     1.86876569     2.09722421     2.55138966    -2.78323383    -4.05084832
O       3.67535464     2.90173091     7.02597175    -2.55138966     2.78323383     4.05084832
O       0.42501247     0.51643812     2.09719506     0.16958077    -3.32694496     2.90824117
O       6.79652870     4.25405849     7.02600089    -0.16958077     3.32694496    -2.90824117
O       2.54474277     0.51648251     6.65882233    -2.55123437     2.78296541    -4.05040609
O       4.67679845     4.25401410     2.46437372     2.55123437    -2.78296541     4.05040609
