# total energy = -4984.94421540 eV

CRYSTAL
PRIMVEC
        4.37362044     0.00000000     0.00000000
       -0.00000974     4.37362044     0.00000000
       -2.18684452    -2.18684939     5.58171239
PRIMCOORD
6 1
Ti     -0.00019260     3.28038099     1.39542795    -0.00092431     0.00092431    -0.00000000
Ti      2.18695866    -1.09361005     4.18628408     0.00092431    -0.00092431     0.00000000
O       0.00004369     1.09339768     0.90921528    -0.00042783    -0.00232813    -1.22447522
O       2.18672225     1.09337313     4.67249681     0.00042783     0.00232813     1.22447522
O      -0.00002470    -1.09337869     3.70007141    -0.00232813    -0.00042783    -1.22447522
O       2.18679058     3.28014944     1.88164068     0.00232813     0.00042783     1.22447522
