# total energy = -19519.89798972 eV

CRYSTAL
PRIMVEC
        5.17575250     0.00001323     0.00000000
        0.00001429     5.50856584     0.00000000
        0.00000000     0.00000000     9.26345890
PRIMCOORD
23 1
Ti      1.83990687     3.32617090     3.41694120    -0.00772051     0.01068962    -0.01281670
Ti      3.31281256     2.18937267     5.76073567     0.02724085     0.03326212     0.04406795
Ti      4.51688351     1.99374416     1.36845900    -0.00031445     0.04282045     0.00773388
Ti      0.85301481     3.26314088     7.96062652    -0.00380086     0.08803589    -0.03984234
Ti      1.86459984     0.59593149     1.13678352     0.11895470     0.00876464    -0.03758080
Ti      3.21953964     5.11081914     7.96190767     0.01912542     0.00204403     0.02894652
Ti      0.66713258     0.55773337     5.76526848    -0.00399190     0.06284447    -0.07087814
Ti      4.39534059     4.88572800     3.45388479     0.01658851    -0.03802046     0.00560064
O       1.61899520     1.92667767     4.71271200    -0.03561056    -0.04514370    -0.00951720
O       3.52657307     3.58503492     4.53905061    -0.01744700    -0.00698158    -0.02966771
O       0.85741217     1.99149132     0.08485265     0.01040680     0.07021223     0.00425415
O       3.56441161     0.85606249     0.08644754     0.01958050    -0.02237838     0.01706313
O       1.70355838     4.66052470     9.17990274     0.03452941     0.02055701     0.03654285
O       4.21261204     0.81266461     4.73160117    -0.03371052    -0.00097908     0.06613163
O       0.94387658     4.65403962     4.57631183    -0.02786691     0.01747065    -0.02430130
O       0.16084689     3.39541056     2.44350309     0.03071878     0.03127928     0.04303694
O       4.98362934     2.14199265     6.78643667    -0.00534507    -0.04175987    -0.07283629
O       2.76662330     2.19951678     2.10783443    -0.08050590    -0.10827382     0.00835146
O       2.53041238     3.35299735     7.17204804    -0.00778865     0.05180595    -0.01565314
O       0.23127370     0.59638394     2.20989801    -0.04646114    -0.07680197     0.00881760
O       4.97411845     4.83684012     7.27897524    -0.02353743    -0.08544756     0.05554151
O       2.35406371     0.66427186     6.77464267     0.00156992     0.04182595     0.00218261
O       2.78555066     4.93750596     2.48459945     0.01538600    -0.05582587    -0.01517723
