# total energy = -39036.94512841 eV

CRYSTAL
PRIMVEC
        7.60600008     0.00000000     0.00000000
        0.00000000     7.60600008     0.00000000
       -3.79573973    -3.79573973     9.71340985
PRIMCOORD
46 1
Ti      1.87403747     4.82375242     6.16019264     0.07882028     0.52500146     0.22510454
Ti      3.81062099     6.90136501     1.22967500    -1.13223326    -0.50859859     0.90188779
Ti      2.04259042     0.87674447     6.04223961    -1.17679461     0.11126582    -0.14652697
Ti      3.78187402     2.83480898     1.26625999    -1.34478130    -0.39219391     0.36666310
Ti     -1.90858057     4.59743247     6.10418060     0.62424480     0.57235220    -0.28539436
Ti     -0.04333401     6.65974702     1.21722002     0.66709559    -0.52343566    -0.95372767
Ti     -1.88709153     0.79701344     6.02171362     1.34283960    -0.28886920    -0.15229987
Ti     -0.18132798     2.84625302     1.06480200     1.37573739     0.56764451    -0.27682075
Ti      3.84496544     1.12914947     8.40021163     1.51508583    -0.59087932     1.41450116
Ti      5.71581901     2.85617198     3.72571900    -0.34766316    -2.05696094    -0.62470245
Ti      3.95399146    -2.81894653     8.40417263    -0.37028064     0.50017257     1.46343441
Ti      5.60338498    -1.07295302     3.53365300    -1.09725545     0.97667786     2.02077419
Ti      0.12025844     1.06153343     8.39948661    -1.09033943    -0.80742722    -1.81521082
Ti      1.76904600     2.77154500     3.57439700     0.97634696     0.12869199    -0.33234272
Ti      0.10985646    -2.71335455     8.53510061     0.07099744     0.38659944     0.83212782
Ti      1.72168501    -1.04569198     3.65896598     1.39293396     0.89087703     0.44944160
O       1.99947946    -0.90791454     5.74315260     0.40680806    -1.77710191    -0.89761153
O       3.91533199     1.03916701     0.85318301     0.25121513     0.58354550    -0.85140082
O      -1.71086355     2.69118546     5.73722661    -0.33892526     1.88005406    -0.61621421
O      -0.06575800     4.85155698     0.77973998     0.18956879    -0.34703658    -0.28974081
O      -2.05827053    -1.04859457     5.55581364     0.17188602    -0.48864245     0.94388986
O      -0.13873202     0.98671300     0.70494898    -0.46573597    -0.18241032     1.02961998
O       4.02282043     2.92680645     8.88227163    -0.82801148    -0.25189493     0.62371746
O       5.59912500     4.63025802     4.09083902    -0.31260255     1.00109487     0.63961151
O       3.86322544    -0.89688855     8.81733962    -0.29527125    -0.33460220     0.77285076
O       5.81539101     0.90880298     4.05852201    -0.14191286    -0.54468352    -0.01515512
O       0.05325947     2.76962842     9.07456162     0.12689710     0.36251771    -0.48574019
O       1.82205702     4.65331099     4.25782000     0.32564293     0.00857849    -0.98544122
O      -0.00160357    -0.68196258     8.93827562     0.22674310    -1.56004802     0.57673362
O       1.67817399     0.96161502     4.07301099     0.17253163    -0.31467949     0.31925657
O       2.00885045     0.89749446     8.01161064    -0.68697614     0.84035047     0.15274595
O       3.80389901     2.60076002     3.17210000     0.23297289     0.88163854     0.70022555
O       1.96044243    -2.95560253     8.16714260    -0.78087389     0.34113744    -0.31667724
O       3.75888402    -0.77775699     3.19205797    -0.40246058    -0.62565222     1.03838822
O      -1.92829555     0.99529747     8.24766560     1.34976410    -0.15942465    -1.57863453
O      -0.00356300     2.97547700     3.29832301    -2.19593812    -0.22808393    -0.85693435
O      -1.74338355    -2.89624556     8.35746062    -0.92742708     0.31111311    -1.70526578
O      -0.12548698    -1.05535999     3.17702400     1.13292052     0.02571721     0.01135554
O       3.78201044     4.46111043     6.55049965     1.17319532     0.12324613    -0.75020010
O       5.53765698     6.34942198     1.64540501     1.32933719     0.23100445    -0.97862316
O       3.89094644     1.08733346     6.42610860    -0.37817316     0.12602935    -0.22071309
O       5.57397299     3.12154003     1.51527699     1.63833171     0.00159357     0.56125866
O       0.01236947     4.79092544     6.45672563    -0.23552111    -0.31287277     0.60297328
O       1.92421300     6.70368900     1.69888699    -1.39674717    -0.50256267    -0.20972008
O       0.10612544     0.79661444     6.45901062    -0.98202730     0.72608546     0.53711933
O       1.80787200     2.75138700     1.65831598     0.15603491     0.69507074    -0.83858283
