# total energy = -19958.52182080 eV

CRYSTAL
PRIMVEC
        7.60600008     0.00000000     0.00000000
        0.00000000     7.60600008     0.00000000
       -1.89786986    -1.89786986     4.85670466
PRIMCOORD
24 1
Ti      3.73818101     6.54009200     1.31258300     1.17233349     2.78683595     1.40440469
Ti      3.47277100     2.94219598     1.24381398     3.34835609    -0.96873264    -0.11797717
Ti      0.12543300     6.54441702     1.18976101    -1.34387061     1.82602925    -1.38914827
Ti      0.12763501     3.10005400     1.15877800    -4.94477752    -2.22619847    -1.54467744
Ti      5.67487122     2.87181525     3.38590079    -0.30790283     0.28494081     0.48982079
Ti      5.98592621    -0.91997777     3.63180781    -1.10897377    -0.71972326     0.41408737
Ti      1.74424421     2.83251521     3.67756281    -0.00057541     0.38287057     1.04144166
Ti      1.99475523    -1.01537578     3.76118382    -0.26940260    -0.32536268     0.60665433
O       3.46974098     4.82661998     0.91311900    -0.08286386    -4.12420372    -1.03959870
O       3.74783400     0.73069202     0.92215401     0.49232787     2.82159908    -1.27164238
O       0.49189698     4.77945399     0.78356302    -0.53638914    -0.17596559    -0.35547391
O       0.10942502     1.02386098     0.58910901     0.00000206    -0.94011933     1.90635389
O       5.56843123     4.61750125     3.99999082     0.20733178     1.20555318     0.89173090
O       5.72444221     0.99167822     3.99998781     0.23123945     0.78821850    -0.19928139
O       1.95458423     4.59843124     4.07295082     0.20290768     0.72049742     0.45634090
O       1.55445722     0.82962324     4.03415181     0.60082178     1.32962850     1.49525517
O       3.74254223     3.02254022     3.12053681    -1.11086713    -1.39050427    -0.26209013
O       3.75471622    -0.97098977     3.35878082     0.19007427    -0.05084975    -1.00225315
O      -0.06136175     3.06529822     3.27484283     1.38599687    -0.44028718    -0.80489546
O       0.16250425     6.27627121     3.10166381    -0.60388885     0.43326704     1.51509509
O       5.79979298     6.43088400     1.78021000    -1.03563251     0.35539961    -1.76933255
O       5.72494202     2.92978000     1.57169501    -0.04817838     0.17521072    -1.15980758
O       1.85386698     6.87689401     1.58877299     1.61533550    -0.43793462     0.70419662
O       1.76338899     2.84316099     1.75289599     1.94659501    -1.31016935    -0.00920301
