# total energy = -19517.04619350 eV

CRYSTAL
PRIMVEC
        5.17600016     0.00000000     0.00000000
        0.00000000     5.50899976     0.00000000
        0.00000000     0.00000000     9.26300011
PRIMCOORD
23 1
Ti      1.89357998     3.23430098     3.40257998    -0.29329922    -1.20115968     3.20705952
Ti      3.31634901     2.26696200     5.90399100     0.83037304     0.31820756    -2.81251331
Ti      4.41392899     1.98983098     1.53469001    -0.02945611     1.18924904    -2.21849750
Ti      0.89136299     3.39084399     7.70392201    -0.75260871     0.01709193     1.73125784
Ti      1.87861898     0.18561300     1.40921399     1.07469529     0.15618892    -1.71875790
Ti      3.21846799     5.28398597     7.90138201     0.60008747    -0.03778726     1.25740618
Ti      0.71639000     0.56465901     5.90793400    -0.87893220     0.01625529    -3.11218243
Ti      4.50270799     4.86552800     3.38072400    -0.08160916    -0.46359475     4.18282901
O       1.86069500     1.74414202     4.78859299    -0.73427905     0.99584416    -0.92928162
O       3.57430699     3.57000600     4.46748500    -0.13674520    -0.39645551    -0.14409496
O       5.16937301     2.64269499     9.23124201     0.34625625    -0.06628898    -0.49234047
O       3.48522498     0.58423301     0.38484500     0.50205873     0.03087742    -1.01682026
O       1.63886602     4.80043698     8.91252400     0.04341052    -0.07924554     1.57254024
O       4.24019099     0.74230101     4.85308398     0.43911810    -0.11042018    -0.20158999
O       0.99688501     4.76327403     4.44893798    -0.00825967    -0.92807654     0.05696255
O       0.24593502     3.37318000     2.47390899    -0.22723727    -0.09343469    -0.31386214
O       5.14116098     2.32515398     6.49342201    -0.03255455    -0.46664357     0.61008907
O       2.71116598     1.85059899     2.23205302    -1.46328220     0.18575250     0.17983151
O       2.58804702     3.83732698     6.83185002    -0.39066976    -0.94117863     0.52164514
O       0.15594600     0.64288702     2.28389700     1.70333539     0.01938201    -0.92239491
O       5.03092600     4.81367398     7.12356802    -0.68013906     0.78073685     0.52856141
O       2.31650400     1.10488199     7.04231402    -0.57972279     0.21998161     1.22556228
O       2.81691898     4.46067502     2.36379101     0.74946039     0.85471754    -1.19140902
