# total energy = -79406.29512547 eV

CRYSTAL
PRIMVEC
       10.35150501     0.00002646     0.00000000
        0.00002858    11.01713167     0.00000000
        0.00000000     0.00000000     9.26345890
PRIMCOORD
95 1
Ti      7.01777628     8.83641034     3.48393127     0.01885082    -0.11230197    -0.12063363
Ti      7.12475755     3.23821848     3.42150116     0.07406657    -0.09020719    -0.03560774
Ti      1.87313188     8.78827076     3.44294875    -0.15990982     0.14613050     0.11968772
Ti      1.77931815     3.18270014     3.46427680    -0.11438251    -0.23356887     0.19064454
Ti      8.48988416     7.74545706     5.80896268    -0.08852851    -0.03077355    -0.05190931
Ti      8.49840061     2.23498416     5.83095000    -0.01327358    -0.09156730     0.00599839
Ti      3.26756661     7.73541857     5.81862897     0.05759736     0.00695329     0.00014090
Ti      3.29880021     2.27016598     5.79364543     0.11306842    -0.28629939     0.11321934
Ti      9.52251509     7.79052766     1.22661733     0.16987748    -0.03849457    -0.11914522
Ti      9.65516553     2.19236545     1.16847504    -0.03295796    -0.07868376    -0.06417424
Ti      4.46438218     7.70373081     1.21235517     0.09775826     0.04195939    -0.00731659
Ti      4.46623436     2.26758205     1.20982188     0.16666848    -0.16919511    -0.03197759
Ti      5.89405741     8.79432524     8.09715042     0.04022287     0.08938289    -0.00968586
Ti      5.89953968     3.24315361     8.04112633     0.06533561     0.18191461     0.18501639
Ti      0.66135798     8.92419412     7.92222932     0.12651529    -0.31543334     0.28141120
Ti      0.72092771     3.29431530     8.08815630    -0.02577943    -0.05117243    -0.07709687
Ti      7.00927390     5.99878986     1.17339097     0.14237772     0.14478067     0.06580381
Ti      7.02606576     0.54101683     1.21870014     0.04945673    -0.00841934     0.06074671
Ti      1.73901848     6.29775675     0.95056303     0.02565191    -0.02965640    -0.08776541
Ti      1.87678142     0.49709193     1.17399578     0.02275684     0.07772679    -0.03469551
Ti      8.41006952    10.48729876     8.10982003     0.13238024    -0.03979041    -0.08109597
Ti      8.50258620     4.97304599     8.10687551    -0.03458469    -0.05479897    -0.10891223
Ti      3.33284171    10.50067047     8.09435226    -0.01802755    -0.12137951    -0.00993115
Ti      3.29250516     4.95068873     8.08005672     0.16231509     0.06689422    -0.06114780
Ti      5.90245945     6.13265105     5.96332380    -0.01011061    -0.06344636    -0.08885684
Ti      5.88651850     0.54695454     5.83701487     0.08187398     0.01074593     0.01137636
Ti      0.73253870     6.01168383     5.81931278    -0.01827309     0.10148559     0.01208496
Ti      0.74145389     0.53622502     5.83842480    -0.20061323    -0.07280416     0.06044512
Ti      9.64574121    10.51689942     3.44979605    -0.07031121    -0.16693305     0.00626809
Ti      9.64898160     5.01328317     3.39673625    -0.02594681    -0.04894534    -0.02343844
Ti      4.44612431    10.50563688     3.44598578    -0.04898365    -0.15356074     0.05402018
Ti      4.68848999     4.96403522     3.61861943     0.19733250    -0.15122000     0.07659345
O       6.82316762     7.44227509     4.72097462     0.00434080    -0.02489677     0.15354480
O       6.82778624     1.93283942     4.72621523     0.03888384     0.04289836    -0.01903003
O       1.63375458     7.46354038     4.76200721     0.02562388    -0.07025491    -0.09058180
O       1.61653953     1.90686176     4.71498687    -0.00644602    -0.14984626     0.14154854
O       8.72157834     9.08158430     4.54039010    -0.00218184     0.02631731    -0.00233996
O       8.75520927     3.56913941     4.53672768    -0.04166757     0.00362731     0.01388550
O       3.52995217     9.08330226     4.54440519     0.01089274    -0.00588577    -0.00014912
O       3.54624074     3.60266400     4.44658122    -0.32536320     0.26738249    -0.47997217
O       6.12839833     7.43075228     0.11247845    -0.07090488    -0.09668766     0.02522510
O       6.11959296     1.92236023     0.09596816     0.00234768    -0.02239072    -0.05557107
O       0.90365720     7.48138530    -0.03513585     0.01926734    -0.04541855     0.15453750
O       0.92906198     1.90647532     0.08234609     0.10827125     0.06971652    -0.00021983
O       9.37214115     9.10367950     9.17133142     0.05776268     0.04530620    -0.05916882
O       9.40486427     3.56740575     9.15931248     0.07113191    -0.01150595     0.02740951
O       4.20900276     9.03783499     9.17982187     0.00287012     0.08561597     0.02530429
O       4.24639271     3.57109075     9.16828603    -0.12513127     0.03058585     0.07309932
O       8.72671685     6.31766995     0.10400571    -0.10046846     0.05843605     0.03791633
O       8.70238243     0.81812396     0.09022746    -0.02564291     0.06258402     0.03438620
O       3.54281145     6.30313729     0.09537215    -0.11428995     0.04863758     0.04829459
O       3.53334204     0.82751698     0.12779495     0.00566260    -0.08986189    -0.07731310
O       6.80678657    10.18858239     9.17138576    -0.13388690    -0.00369288     0.10601716
O       6.82363365     4.67190472     9.15645214     0.02779955     0.01167616     0.08199714
O       1.64333655    10.19504495     9.19169139    -0.10230218    -0.05191471    -0.12269052
O       1.67290329     4.64359806     9.20998038    -0.05586675     0.23214679     0.15763336
O       9.42379836     6.29836331     4.73786770    -0.05051371     0.05252226    -0.10074023
O       9.39747776     0.81355578     4.73093387    -0.02815668     0.02390330    -0.01292777
O       4.21603583     6.34157913     4.73366236    -0.00130715    -0.06811060    -0.01997414
O       4.21377199     0.84491189     4.71430824    -0.05225666    -0.06667207    -0.03334336
O       6.10673610    10.20593621     4.54355282     0.01988235    -0.04346657     0.00670852
O       6.15667867     4.69612414     4.58746374     0.30098939    -0.04390237     0.08876557
O       0.94547656    10.18269685     4.53940512     0.02421954     0.03593478    -0.02867810
O       1.05117989     4.73884588     4.43726796     0.03802483    -0.01048059    -0.06332012
O       5.35467645     8.84113454     2.50372357    -0.04197945     0.01908659     0.04536096
O       5.44024313     3.33807631     2.48602413    -0.19447446     0.13840588     0.14326629
O       0.20539067     8.84974120     2.48993626    -0.07412725     0.04448576    -0.08925151
O       0.15224369     3.36847870     2.48026967     0.17964202     0.05413743     0.01451208
O      10.16343722     7.65678889     6.74603417     0.05903075     0.05772720    -0.02573881
O      10.17400530     2.12508672     6.76869435     0.03588079     0.10669465     0.00271509
O       5.00295415     7.64792861     6.76919666    -0.13714475     0.08479141     0.11652424
O       4.98041391     2.14963543     6.74534187    -0.08614124     0.08649580     0.02671274
O       7.92298394     7.66421115     2.14554827     0.05347537     0.01754033    -0.07548350
O       7.96548897     2.12170084     2.12871027    -0.04491925     0.06828518     0.08987937
O       2.76845432     7.49886211     2.18150064    -0.13068331     0.02727839    -0.13808243
O       2.76416949     2.23155799     2.12715776     0.09193446     0.27768002     0.01525205
O       7.56130045     8.84306292     7.13108259    -0.05795140    -0.00769172     0.00364351
O       7.57526341     3.34397362     7.12864820     0.08536348    -0.01348878    -0.05807250
O       2.38662660     8.86144968     7.13739621     0.00356921     0.09680747    -0.06299745
O       2.39557693     3.36401162     7.09043542    -0.03672488    -0.08245711     0.07550433
O       5.34358857     6.04488359     2.11704140    -0.16144246    -0.03607542     0.17697938
O       5.35843276     0.59413471     2.14227453    -0.00884408    -0.00718109    -0.00365662
O       0.21673816     6.15610095     2.10066787    -0.08049279    -0.15667846     0.03273787
O       0.19322084     0.61776415     2.15107963     0.07908871    -0.01249634    -0.01315711
O      10.14344718    10.41436900     7.12683987    -0.11259945     0.16233591    -0.12582392
O      10.18521976     4.89561715     7.12569767    -0.01581049    -0.07037960    -0.02172994
O       4.99561310    10.40426087     7.14452436    -0.06005842     0.05669387    -0.00763772
O       4.98987688     4.89945473     7.13980410     0.05871810     0.00569345    -0.05709908
O       7.58155430     6.10289616     6.77947306     0.02672457    -0.00340903     0.06834380
O       7.55784145     0.58881206     6.76989156    -0.03480889     0.09067256    -0.03648140
O       2.39537672     6.10919662     6.78852171     0.01013632    -0.03260906    -0.06926400
O       2.38915430     0.55253012     6.78844544     0.11153424     0.29791486    -0.21773087
O       7.94851511    10.41595073     2.49828384     0.05392634    -0.03229332     0.06344379
O       7.95810384     4.91913145     2.51287491     0.09413583    -0.03372852    -0.05940665
O       2.78208069    10.38427969     2.49284230    -0.06896601     0.04413763    -0.05358232
