# total energy = -19517.22471210 eV

CRYSTAL
PRIMVEC
        5.93400000     0.00000000     0.00000000
        0.00000000     9.29699974     0.00000000
        0.00000000     0.00000000     4.64899994
PRIMCOORD
23 1
Ti      4.36135501     7.01866001     2.19295402     0.46698424     0.37519248    -0.39616729
Ti      4.47578600     2.35402399     2.30013602     1.36027966     0.09616649    -0.89735185
Ti      1.36419202     6.93986398     2.32935798    -1.11313382     0.14150869    -0.13807729
Ti      1.52491399     2.27862999     2.40697198    -0.88441765     0.63343469    -0.14670257
Ti      3.00919400     4.55542802     0.12270800    -0.96813280    -0.15721376     0.16386983
Ti      2.95939699     0.15661398     0.00438402    -0.60951057    -0.86424605     0.85916658
Ti      5.91530602     4.60545998     0.02805899     0.94766630     0.43348353    -0.32145075
Ti      5.91360398     9.25616102     4.50191402     0.20064099    -0.42765843     0.21810496
O       4.37426202     5.57291802     0.89051599     0.06203766    -0.11730045     0.03652305
O       4.54949002     0.85949398     0.93559300    -0.09855659     0.34035711    -0.84825738
O       1.44523699     5.53852700     1.06336300     0.73710290    -0.02775455    -0.86273861
O       1.54785801     1.00251598     0.97059903     0.38989431    -0.80595989    -1.31918827
O       4.62855598     8.22562299     3.61655100    -0.83090217     1.86824318     1.61154620
O       4.46668600     3.80568599     3.70590702    -0.67599932    -0.02825618     0.62732755
O       1.62901702     8.49689300     3.64774102    -0.39171003    -0.43022465     0.20467711
O       1.43582902     3.60645901     3.88436501     0.25547185     0.82236791    -0.06404775
O       3.13711202     1.56914998     3.27131100    -1.14168747    -1.25802427     0.95238402
O       5.86060000     6.06143499     3.27677798     1.00927406    -0.50337359     0.22484743
O       0.06682498     1.29848699     3.06351399    -0.80104548    -0.07391436     1.46251164
O       2.98256501     7.93079199     1.26219199    -0.04556485    -0.79070450     1.11719333
O       2.93543098     3.29646798     1.43700299     0.68018971    -0.66763835     0.41240021
O       5.86814601     7.77561198     1.45045801     1.05233260     1.23545512    -1.53129485
O       0.00205601     3.34051198     1.64099098     0.39878596     0.20606037    -1.36527505
