# total energy = -19515.50401906 eV

CRYSTAL
PRIMVEC
        5.17600016     0.00000000     0.00000000
        0.00000000     5.50899976     0.00000000
        0.00000000     0.00000000     9.26300011
PRIMCOORD
23 1
Ti      1.90575799     3.20652600     3.43474999     0.29445493    -0.82695579     1.71030823
Ti      3.37684900     2.26864600     5.89562798     0.29049543     0.17949598    -2.43033359
Ti      4.19559802     2.30044299     1.57247899     0.65761593    -2.46403023    -1.85547894
Ti      0.79343699     3.42778601     7.81526000    -2.01605930    -1.06821406    -1.00193793
Ti      1.90582800     5.50868898     1.45059100    -2.10214347     3.13418569    -3.04499820
Ti      3.32426301     5.21251302     7.91817000    -1.09747553    -0.21471805     1.07861057
Ti      0.82687200     0.64888498     5.94758202    -1.38756987    -1.84265273    -3.57488296
Ti      4.58685601     4.88273198     3.42720101     0.84631003     1.52542270     2.66866080
O       1.81853000     1.86144601     4.78297402     0.04943745     0.07188781    -1.40563933
O       3.64221498     3.45689902     4.43897500    -0.00067800     0.28607210    -0.55980033
O       4.81527299     2.92996199     9.12534200    -0.59654398    -0.42287875     0.40710554
O       3.41977400     0.59084302     0.31824402     0.47188219    -0.41393311    -1.72115520
O       1.65851601     4.60712297     8.79077498     0.73825398     2.15842056     3.68048283
O       4.41004101     0.65332700     4.90601901    -1.43996563    -0.74456090    -1.82789973
O       1.18883601     4.68604299     4.42428800    -0.60740201    -0.13645441    -0.37900826
O       0.19516798     3.46012398     2.35560099     1.99838836     0.77469758     0.64277114
O       5.17599302     2.21968102     6.33670400     0.38317910     1.73946326     3.04165448
O       2.47647402     1.68371300     2.11836898    -0.01966406     1.81145906     0.94198827
O       2.51638102     3.49947598     6.97829601     0.91389304     0.72545554    -0.01923160
O       0.12977802     0.82730799     2.24066999    -0.37499425    -0.92073989    -0.64351008
O       4.90425600     4.77526301     6.97877999     0.75317615     0.43474645     0.79155245
O       2.33502102     1.01422699     6.95302399     1.40258435    -1.22285980     2.18823766
O       3.03441200     4.49488400     2.23436003     0.84282516    -2.56330930     1.31250443
