# total energy = -19072.81235515 eV

CRYSTAL
PRIMVEC
        5.17600016     0.00000000     0.00000000
        0.00000000     5.50899976     0.00000000
        0.00000000     0.00000000     9.26300011
PRIMCOORD
22 1
Ti      2.07062200     3.44834000     3.24128897     0.64644371     1.51740908     1.25749257
Ti      3.48002898     2.12674501     5.80838401     0.97016140     0.10824194    -1.49075111
Ti      4.56546402     2.35986399     1.32078398     0.05359492    -0.78024602    -1.54201172
Ti      0.51449703     2.93654601     8.01351700    -2.62744498    -1.51661050     1.58417294
Ti      1.94576099     0.63219197     1.49538299    -0.94045821    -2.14699201    -2.32364743
Ti      3.00148500     5.10853900     8.04350399    -0.47822614     1.19924446     3.33168865
Ti      0.70771202     0.13872699     5.91335299    -0.08804026     0.81815670     0.12658703
Ti      4.62892402     4.86792401     3.40990998    -0.88394611     0.77159760    -0.16239479
O       3.68549999     3.43371301     4.39401800    -0.05291872    -0.40090069     1.19118611
O       0.89507702     1.94047901     0.31014301    -0.01816768     0.62236738    -1.16096638
O       4.17563798     3.55027398     9.02419601    -0.06409171     0.50948022    -0.47747949
O       3.36999001     0.91411697     0.04197598     1.20369993     0.05318046    -0.06478514
O       1.62199299     4.95416599     0.15297699    -0.25680265    -1.60808910    -1.99940163
O       4.20886899     0.74171002     4.70727300     0.09428779    -0.26110668     0.84547931
O       1.20729398     5.13685401     4.12372501     0.98149149    -1.16892343     2.06470433
O       0.52999001     3.57040198     2.27893702    -2.49494698    -0.62185650     0.19279964
O       4.85370200     1.47305499     6.99442200     0.76697527     0.14288217     0.21028264
O       2.71877899     2.21182401     2.09055299     1.64899305    -0.33293047     0.52362361
O       1.47550101     4.02588902     7.05525002     2.16392658     2.01655244    -2.31363323
O       0.10790300     0.65404001     2.17697102    -0.30218907     1.69230433    -0.45550837
O       2.24849498     1.10942503     6.77114402    -0.72726045    -1.31357992     0.28751089
O       3.04896098     4.74371802     2.28668999     0.40491882     0.69981854     0.37505159
