# total energy = -19071.41995359 eV

CRYSTAL
PRIMVEC
        5.17600016     0.00000000     0.00000000
        0.00000000     5.50899976     0.00000000
        0.00000000     0.00000000     9.26300011
PRIMCOORD
22 1
Ti      1.78233401     3.38982099     3.34590901     1.29911643     1.98845876     0.03205781
Ti      3.82544801     2.33547098     5.97395098     0.24528436     0.39012880    -0.86294867
Ti      4.29233601     2.57191198     1.58440997    -0.70240225    -0.72503208    -1.54816669
Ti      1.23950002     2.42326202     7.82526701     0.23637574     0.61335051    -1.98438587
Ti      1.52616402     0.73362102     1.26141098     0.18305259    -0.64823937     1.19719324
Ti      3.05271301     5.45437898     8.10374500     0.35799051    -0.87441554    -1.77943622
Ti      0.56922999     5.25333899     6.31497698     1.61072808     0.61869455    -0.46288616
Ti      4.46510101     5.11620398     3.54623102    -0.24194244    -0.62393472     0.70294886
O       3.95504399     3.38317298     4.34941699    -1.33842064    -0.51932961     0.42676472
O       0.48706501     2.06054700     0.16130698    -1.31133252     0.80060094     2.43363798
O       5.09825000     3.61058299     6.72789002     0.35020803    -1.50058892     0.60775039
O       2.73975600     1.31047502     9.23647102     1.69807234     1.44779773     0.04626265
O       1.38634999     4.81388999     8.22023998    -0.60651215    -0.40210140     2.05216095
O       4.34681799     0.72426299     5.04519802     0.35670367    -0.88158224    -0.16095523
O       1.12877000     4.71049902     4.52689801    -0.20020134    -0.19646166     0.21396266
O       0.16658299     3.90941002     2.14653301     1.82922771     1.13603181     0.30139819
O       4.92048301     0.93921702     7.47367698    -1.45355777     1.06167522    -0.77457108
O       2.59717199     1.99926800     2.27328202    -0.83060701     0.59902972     0.53152975
O       2.69246099     3.38033601     7.00620302     0.35094131     0.74376411     0.32456050
O       5.07945902     1.18021402     2.36742900     0.98710703    -1.81078620     1.02671978
O       2.31622898     1.08295299     6.70440900    -1.22319507    -1.07741449    -0.68824163
O       2.89293900     4.90566599     2.57175799    -1.59663663    -0.13964618    -1.63535566
