# total energy = -19517.57139821 eV

CRYSTAL
PRIMVEC
        5.17600016     0.00000000     0.00000000
        0.00000000     5.50899976     0.00000000
        0.00000000     0.00000000     9.26300011
PRIMCOORD
23 1
Ti      1.83256003     3.11116498     3.45159798     0.23525885     0.76486851     1.53486457
Ti      3.29868698     2.27961098     5.90041302     1.39440284     0.27850637    -2.55291818
Ti      4.39091501     2.03883401     1.47335901     0.75118689    -0.83255282    -1.17827274
Ti      0.90568300     3.41387098     7.71332300    -2.00502438     0.75828725     1.21400363
Ti      2.02745400     0.22359702     1.44665900    -0.26469723     0.01110074    -1.78876598
Ti      3.19195500     5.27682499     7.92154001    -0.06297122     0.32348269     0.95353896
Ti      0.71937398     0.61181500     5.90722702    -1.19848907    -1.33185173    -2.97576171
Ti      4.53300397     4.82803400     3.37456602     0.42758953     1.15856651     3.07064445
O       1.78062101     1.83055799     4.77494900    -0.69662780    -0.46864415    -0.20066182
O       3.49749802     3.47956500     4.43951698     0.43506038     0.32196266     0.13074733
O       0.05320703     2.65287800     9.12862301    -0.02744911    -0.05954394     0.85952216
O       3.44954202     0.83665199     0.26344698     0.23822128    -0.66054133    -1.00563570
O       1.63999798     4.79090502     9.00344200     0.67445280    -0.40031294     0.31540994
O       4.34027900     0.71937202     4.81703103    -1.03396721     0.30770048    -0.50059423
O       0.95368202     4.64766398     4.46558499     0.43150969    -0.54119145     0.07746017
O       0.11488798     3.29970501     2.50489602     0.94393460     0.45474913    -0.16290978
O       5.08518699     2.21470098     6.55893002    -0.24339203     0.79430071     0.74867595
O       2.63294802     1.80979699     2.28868198     0.63163621     1.09223202    -0.12913910
O       2.54410800     3.77465599     6.83726302     0.55455759    -0.20202836     0.55919355
O       0.35785299     0.69308800     2.21360199    -1.16546247    -0.45586113    -0.63352237
O       4.97868700     4.93556001     7.12266398    -0.13532132    -0.80281235     1.10220919
O       2.27243502     1.08337897     7.00936401     0.34900193    -0.09651925     1.13660825
O       2.89109000     4.48091499     2.37113499    -0.23341075    -0.41389788    -0.57469628
