# total energy = -19936.70783328 eV

CRYSTAL
PRIMVEC
        6.78541147     0.00000000     0.00000000
        0.00002867     5.33780029     0.00000000
        0.00000000     0.00000000    10.80342036
PRIMCOORD
24 1
Ti      2.45940231     3.16317555     4.00799190     0.43330561    -0.44358617     0.71254757
Ti      4.32603789     2.17462492     6.79542852    -0.43330561     0.44358617    -0.71254757
Ti      5.85199085     2.17462678     1.39367515     0.43349150     0.44363939    -0.71274246
Ti      0.93344935     3.16317394     9.40974539    -0.43349150    -0.44363939     0.71274246
Ti      2.45938809     0.49427553     1.39371846     0.43335703    -0.48235327    -0.71104270
Ti      4.32605211     4.84352513     9.40970208    -0.43335703     0.48235327     0.71104270
Ti      0.93343513     0.49427349     6.79538520    -0.43343030    -0.48255742    -0.71179320
Ti      5.85200507     4.84352717     4.00803521     0.43343030     0.48255742     0.71179320
O       2.14763570     1.87953026     5.51290272     0.87834702     1.11652279    -0.83967427
O       4.63780456     3.45827022     5.29051770    -0.87834702    -1.11652279     0.83967427
O       1.24512996     1.87955179     0.11122729    -0.87808888     1.11706503    -0.84071736
O       5.54031036     3.45824874    10.69219283     0.87808888    -1.11706503     0.84071736
O       4.63779034     0.78937001     0.11119224    -0.87850591    -1.11728281    -0.83936085
O       2.14764992     4.54843047    10.69222788     0.87850591     1.11728281     0.83936085
O       5.54029615     0.78934854     5.51293777     0.87818786    -1.11719487    -0.84007664
O       1.24514405     4.54845200     5.29048265    -0.87818786     1.11719487     0.84007664
O       0.24654714     3.24675272     2.91827336    -1.20503870     0.22292938     0.15716234
O       6.53889312     2.09104776     7.88514706     1.20503870    -0.22292938    -0.15716234
O       3.63926019     2.09099798     2.48347120    -1.20530096    -0.22260285    -0.15773621
O       3.14618007     3.24680256     8.31994904     1.20530096     0.22260285     0.15773621
O       0.24653293     0.57785257     2.48343670    -1.20536806     0.22234754    -0.15786296
O       6.53890733     4.75994797     8.31998354     1.20536806    -0.22234754     0.15786296
O       3.14616586     0.57790235     7.88518150     1.20477285     0.22220793    -0.15740659
O       3.63927440     4.75989812     2.91823886    -1.20477285    -0.22220793     0.15740659
