# total energy = -19960.41200179 eV

CRYSTAL
PRIMVEC
        5.93400000     0.00000000     0.00000000
        0.00000000     9.29699974     0.00000000
        0.00000000     0.00000000     4.64899994
PRIMCOORD
24 1
Ti      4.43381298     6.92471200     2.18781201     0.09853936    -0.22650322     1.00301471
Ti      4.46670500     2.20493502     2.27454098    -0.10966273     1.69294865     0.61249176
Ti      1.50072800     7.00812499     2.40423201    -0.25676717    -1.41789681    -0.28563090
Ti      1.46010301     2.29954202     2.30012300     0.46953272     1.35128619     0.32300164
Ti      2.99856902     4.69414601     4.61974401    -1.38116885    -2.11215766     0.60231174
Ti      2.98867298     0.01927401     4.64658399    -0.00439864     0.66524234    -0.49920917
Ti      5.89693600     4.66222202     4.59752899     1.42297989    -1.47739730    -0.29164805
Ti      5.93365101     9.23747302     0.10914201    -0.18179326     1.13152569    -0.82483797
O       4.56151901     5.52551300     0.97483398    -0.54706591     0.53380775    -0.30637585
O       4.42779401     0.90979201     0.88648598    -0.02113139    -0.24823496     0.53899315
O       1.47928399     5.56650000     0.94880602    -0.16891331     0.30717315     0.10330208
O       1.45370102     1.01767098     0.97079001    -0.03181998    -1.30735168    -0.53194344
O       4.39713697     8.42838598     3.84207502     0.22979346    -0.42893164    -0.62590187
O       4.43121901     3.69323402     3.71704800     0.79279815     1.41671076     0.79981727
O       1.45933999     8.59325602     3.78638901     0.30976405    -1.73483990    -0.94914417
O       1.59058002     3.80171599     3.69715300    -1.19876932     0.35650544     0.40964708
O       3.06445000     5.99213298     3.24279401    -0.44161104     1.92853069    -0.85079686
O       2.98875898     1.47722798     3.18544299    -0.77948703    -1.05531894     0.93604542
O       5.90340398     6.22360098     3.26936802     0.14381934    -0.84964012     0.61724599
O       5.91809098     1.41496102     3.35669200     0.01248451     0.41256297    -1.08215741
O       2.88385398     7.82955398     1.39794400     0.65295323     0.55807075     0.22035571
O       2.96587000     3.28882603     1.37090500    -0.11679472    -0.69720965     0.54164833
O       0.03383501     7.81689902     1.44490700    -0.07627309     1.04118070    -0.42463044
O       5.80661503     3.21044498     1.38894698     1.18299174     0.15993656    -0.03559874
