# total energy = -19959.42521466 eV

CRYSTAL
PRIMVEC
        7.60600008     0.00000000     0.00000000
        0.00000000     7.60600008     0.00000000
       -1.89786986    -1.89786986     4.85670466
PRIMCOORD
24 1
Ti      3.87875901     6.60177798     1.16880898     0.20635887     0.34136729    -0.69844943
Ti      3.73594498     2.74432698     1.24009201     2.71930847    -0.26106888    -0.03871311
Ti     -0.04483401     6.79098499     1.19389600    -0.09129271    -0.78373424    -0.24022777
Ti      0.10967299     2.95412200     1.21339899    -2.50500848     0.02980578     0.89066106
Ti      5.69454724     2.90768421     3.68493483    -2.51398241     1.66882423    -0.82812744
Ti      5.70682421    -0.74925879     3.67761980    -0.93960640    -2.15304541    -0.72759187
Ti      1.81857525     2.69631721     3.58733983     2.47361427     0.14250139     2.42335536
Ti      1.95809823    -1.00281978     3.56145280     0.49863350    -0.56536394     0.59647301
O       4.00907399     4.53350399     0.68116701    -1.54505797     1.61725071     0.43856866
O       4.03923397     0.92018902     0.66956401    -0.83159200    -1.47458889     0.92704141
O      -0.12197901     4.84746703     0.80482002     1.15542899    -1.66713605     1.16716531
O      -0.21348799     1.00536401     0.77787802     0.95755553     0.95992172     0.24197895
O       5.32465224     4.79690324     4.15471781     1.53506203     0.27330528    -0.71519889
O       5.47488423     1.03985621     4.21723782     1.06652998    -0.20210215    -0.92226816
O       2.26597424     4.65072321     4.09472683    -1.85314952     0.02934607    -0.53881575
O       1.98602423     0.77948222     4.08848979    -1.04377391     1.79985747    -1.18389934
O       3.71564923     2.76059823     3.16857081    -0.07244806    -0.06177129     0.65032942
O       3.86855023    -0.81852878     3.19203982    -0.34386435    -0.18005391    -0.63749061
O      -0.12371577     2.95876823     3.19815082     2.59354523    -0.00648201     0.46564032
O       0.02517423    -0.90799376     3.20085481    -1.09331420    -0.00741712     0.74278864
O       5.67742799     6.66635999     1.61568499     0.76301937    -0.07413213     1.09154991
O       5.61057999     2.85121501     1.80037700     1.25509347    -0.22296821    -0.95527934
O       1.89469602     6.64329802     1.59881899     0.59114080    -0.10727186    -0.70343532
O       1.94709901     2.39667901     1.70259198    -2.98220104     0.90495666    -1.44605503
