# total energy = -19893.84952210 eV

CRYSTAL
PRIMVEC
        7.20464733     0.00000000     0.00000000
        0.00002268     2.90852276     0.00000000
        0.00000000     0.00000000    11.15099777
PRIMCOORD
24 1
Ti      2.61135168     1.72358786     4.13694066    -0.88152927     0.56743651    -0.41728840
Ti      4.59331854     1.18493480     7.01405721     0.88152927    -0.56743651     0.41728840
Ti      6.21355238     1.18493579     1.43851373    -0.88010102    -0.56746710     0.41899793
Ti      0.99111784     1.72358702     9.71248424     0.88010102     0.56746710    -0.41899793
Ti      2.61134044     0.26932653     1.43855843    -0.88161566     0.56462038     0.41689528
Ti      4.59332978     2.63919623     9.71243954     0.88161566    -0.56462038    -0.41689528
Ti      0.99110660     0.26932548     7.01401251     0.87970944     0.56506775     0.41867062
Ti      6.21356362     2.63919728     4.13698536    -0.87970944    -0.56506775    -0.41867062
O       2.28032445     1.02414029     5.69026879     7.31436800    -1.13205586     3.11433959
O       4.92434582     1.88438237     5.46072908    -7.31436800     1.13205586    -3.11433959
O       1.32205747     1.02415200     0.11480577    -7.31840567    -1.13261121     3.11203665
O       5.88261285     1.88437066    11.03619179     7.31840567     1.13261121    -3.11203665
O       4.92433458     0.43012099     0.11476960    -7.31589832     1.13234048     3.11446557
O       2.28033564     2.47840167    11.03622796     7.31589832    -1.13234048    -3.11446557
O       5.88260161     0.43010928     5.69030501     7.31564636     1.13300871     3.11227859
O       1.32206856     2.47841344     5.46069285    -7.31564636    -1.13300871    -3.11227859
O       0.26177532     1.76912841     3.01216268     1.86270451    -0.75821320     1.95991539
O       6.94289490     1.13939425     8.13883519    -1.86270451     0.75821320    -1.95991539
O       3.86410847     1.13936721     2.56337167     1.86745180     0.75827003    -1.96336478
O       3.34056180     1.76915550     8.58762600    -1.86745180    -0.75827003     1.96336478
O       0.26176408     0.31486703     2.56333606     1.86262378    -0.75746938    -1.96405563
O       6.94290614     2.59365563     8.58766161    -1.86262378     0.75746938     1.96405563
O       3.34055056     0.31489406     8.13887070    -1.86765183    -0.75784888    -1.95980174
O       3.86411971     2.59362860     3.01212712     1.86765183     0.75784888     1.95980174
