# total energy = -19897.55739224 eV

CRYSTAL
PRIMVEC
        7.31721995     0.00000000     0.00000000
        0.00002304     2.95396843     0.00000000
        0.00000000     0.00000000    11.32523211
PRIMCOORD
24 1
Ti      2.65215405     1.75051892     4.20158035    -0.74771024     0.50093953     0.07600981
Ti      4.66508915     1.20344941     7.12365186     0.74771024    -0.50093953    -0.07600981
Ti      6.31063914     1.20345042     1.46099050    -0.74630668    -0.50091870    -0.07458336
Ti      1.00660406     1.75051807     9.86424181     0.74630668     0.50091870     0.07458336
Ti      2.65214263     0.27353475     1.46103591    -0.74816430     0.49650180    -0.07621113
Ti      4.66510056     2.68043368     9.86419641     0.74816430    -0.49650180     0.07621113
Ti      1.00659264     0.27353370     7.12360645     0.74624266     0.49681008    -0.07442575
Ti      6.31065055     2.68043473     4.20162576    -0.74624266    -0.49681008     0.07442575
O       2.31595452     1.04014248     5.77917924     6.64849163    -0.88841880     2.36177947
O       5.00128872     1.91382585     5.54605297    -6.64849163     0.88841880    -2.36177947
O       1.34271462     1.04015438     0.11659962    -6.64891406    -0.88888880     2.36294367
O       5.97452868     1.91381395    11.20863229     6.64891406     0.88888880    -2.36294367
O       5.00127731     0.43684163     0.11656288    -6.64923365     0.88905515     2.36248807
O       2.31596589     2.51712669    11.20866902     6.64923365    -0.88905515    -2.36248807
O       5.97451726     0.43682973     5.77921603     6.64781183     0.88931329     2.36306940
O       1.34272588     2.51713864     5.54601618    -6.64781183    -0.88931329    -2.36306940
O       0.26586556     1.79677104     3.05922772     1.34415446    -0.56253675     1.78508725
O       7.05137764     1.15719728     8.26600449    -1.34415446     0.56253675    -1.78508725
O       3.92448517     1.15716983     2.60342435     1.34454861     0.56319727    -1.78585344
O       3.39275808     1.79679855     8.72180766    -1.34454861    -0.56319727     1.78585344
O       0.26585414     0.31978683     2.60338818     1.34376340    -0.56223696    -1.78591386
O       7.05138905     2.63418150     8.72184382    -1.34376340     0.56223696     1.78591386
O       3.39274666     0.31981428     8.26604056    -1.34451313    -0.56218683    -1.78604113
O       3.92449658     2.63415404     3.05919160     1.34451313     0.56218683     1.78604113
