# total energy = -19953.30360239 eV

CRYSTAL
PRIMVEC
        5.40866117     0.00000000     0.00000000
        0.00002515     4.70982379     0.00000000
        0.00000000     0.00000000     8.88917763
PRIMCOORD
24 1
Ti      1.96039442     2.79103712     3.29782161    -0.41740410     1.42876204    -2.41570735
Ti      3.44829194     1.91878647     5.59135637     0.41740410    -1.42876204     2.41570735
Ti      4.66463130     1.91878799     1.14673186    -0.41394545    -1.42868157     2.42772649
Ti      0.74405507     2.79103575     7.74244622     0.41394545     1.42868157    -2.42772649
Ti      1.96038205     0.43612533     1.14676750    -0.41753342     1.43021060     2.42615066
Ti      3.44830432     4.27369841     7.74241058     0.41753342    -1.43021060    -2.42615066
Ti      0.74404270     0.43612360     5.59132073     0.41407683     1.43021112     2.41709909
Ti      4.66464367     4.27370009     3.29785726    -0.41407683    -1.43021112    -2.41709909
O       1.71188428     1.65840895     4.53607944     0.25728165    -1.49630803     1.43162111
O       3.69680209     3.05141464     4.35309854    -0.25728165     1.49630803    -1.43162111
O       0.99249562     1.65842798     0.09151908    -0.25715798    -1.49721203     1.43242432
O       4.41619079     3.05139565     8.79765865     0.25715798     1.49721203    -1.43242432
O       3.69678971     0.69650269     0.09149022    -0.25713407     1.49639622     1.43177589
O       1.71189665     4.01332090     8.79768751     0.25713407    -1.49639622    -1.43177589
O       4.41617837     0.69648371     4.53610829     0.25736444     1.49728660     1.43223149
O       0.99250790     4.01333993     4.35306969    -0.25736444    -1.49728660    -1.43223149
O       0.19652437     2.86478184     2.40118873     1.09171369    -0.42307981     0.52147082
O       5.21216199     1.84504175     6.48798925    -1.09171369     0.42307981    -0.52147082
O       2.90086037     1.84499798     2.04342854     1.09255007     0.42336700    -0.52165646
O       2.50782600     2.86482561     6.84574929    -1.09255007    -0.42336700     0.52165646
O       0.19651195     0.50986989     2.04340013     1.09148795    -0.42323356    -0.52149653
O       5.21217442     4.19995370     6.84577770    -1.09148795     0.42323356     0.52149653
O       2.50781358     0.50991366     6.48801760    -1.09275113    -0.42323331    -0.52133687
O       2.90087279     4.19990993     2.40116033     1.09275113     0.42323331     0.52133687
