# total energy = -19948.34472382 eV

CRYSTAL
PRIMVEC
        6.27301214     0.00000000     0.00000000
        0.00002469     4.45092120     0.00000000
        0.00000000     0.00000000     9.74593092
PRIMCOORD
24 1
Ti      2.27367992     2.63761176     3.61567086     0.14692009     1.04782417    -1.29473758
Ti      3.99935702     1.81330943     6.13026017    -0.14692009    -1.04782417     1.29473758
Ti      5.41007785     1.81331098     1.25725569     0.14867641    -1.04784397     1.29570406
Ti      0.86295909     2.63761042     8.48867539    -0.14867641     1.04784397    -1.29570406
Ti      2.27366757     0.41215127     1.25729476     0.14692009     1.04782417     1.29473758
Ti      3.99936936     4.03877008     8.48863632    -0.14692009    -1.04782417    -1.29473758
Ti      0.86294674     0.41214961     6.13022105    -0.14867641     1.04784397     1.29570406
Ti      5.41009019     4.03877174     3.61570993     0.14867641    -1.04784397    -1.29570406
O       1.98545669     1.56724504     4.97327397     1.30384315    -0.56475305     0.99180547
O       4.28758024     2.88367621     4.77265706    -1.30384315     0.56475305    -0.99180547
O       1.15110357     1.56726297     0.10033982    -1.30379481    -0.56533360     0.99171985
O       5.12193347     2.88365827     9.64559088     1.30379481     0.56533360    -0.99171985
O       4.28756795     0.65821556     0.10030818    -1.30384315     0.56475305     0.99180547
O       1.98546898     3.79270564     9.64562252     1.30384315    -0.56475305    -0.99180547
O       5.12192113     0.65819768     4.97330555     1.30379481     0.56533360     0.99171985
O       1.15111575     3.79272363     4.77262542    -1.30379481    -0.56533360    -0.99171985
O       0.22792818     2.70730258     2.63261910    -0.09827660    -0.00015375     1.01865757
O       6.04510876     1.74361867     7.11331193     0.09827660     0.00015375    -1.01865757
O       3.36444127     1.74357717     2.24037741    -0.09724764     0.00048748    -1.01852567
O       2.90859567     2.70734408     7.50555345     0.09724764    -0.00048748     1.01852567
O       0.22791584     0.48184193     2.24034625    -0.09827660    -0.00015375    -1.01865757
O       6.04512110     3.96907927     7.50558456     0.09827660     0.00015375     1.01865757
O       2.90858338     0.48188343     7.11334298     0.09724764    -0.00048748    -1.01852567
O       3.36445356     3.96903782     2.63258799    -0.09724764     0.00048748     1.01852567
