# total energy = -19959.56162987 eV

CRYSTAL
PRIMVEC
        7.60600008     0.00000000     0.00000000
        0.00000000     7.60600008     0.00000000
       -1.89786986    -1.89786986     4.85670466
PRIMCOORD
24 1
Ti      3.86682898     6.66006701     1.22097601    -0.48688304     0.41388683     1.19980316
Ti      3.84917801     2.96265101     1.21356600    -2.58511380    -0.45471519    -1.26763558
Ti      0.02094002     6.43920298     1.27488801     0.16410792     1.08803701     0.07412287
Ti     -0.01843299     2.92520198     1.05813701     1.47919708    -1.89644511     0.16735291
Ti      5.68909323     2.93017122     3.52955283     0.41096271    -2.46777350    -0.12498934
Ti      5.77964625    -1.09752177     3.80955083    -3.13687172     1.45940035     0.29816117
Ti      1.80226225     2.96796924     3.49900380     0.00094539    -1.35812610     0.20793136
Ti      1.82266521    -0.93819676     3.72562782     2.18475124     1.09024559     0.33767853
O       3.40808400     4.89835102     0.65497401     1.10500836    -1.01714756     0.68606031
O       3.85843501     1.08159099     0.95922801    -0.17217476    -1.05956306    -1.38033890
O       0.49577601     4.65713499     0.69054303    -1.27892529     1.53874385     0.38130760
O      -0.01247900     0.89172299     0.82638399    -0.10369494    -1.07179020    -0.02196366
O       5.47714821     4.57435224     4.20518682     0.18514804     1.61912145     0.30101947
O       5.76128824     0.93612625     4.00431579    -0.23869102     0.21537265    -0.21279306
O       2.06446624     4.85671821     4.14848283    -0.15730966    -0.28686246    -0.41712488
O       1.85117024     1.14139024     3.93368380    -0.15727084    -1.31764252     0.84837437
O       3.74072921     2.89288523     3.16752479     0.58489225     0.55883076    -0.46165254
O       3.91102221    -1.02945576     3.41509179    -0.55411742     0.41634223    -1.16349712
O      -0.09280880     3.19128321     3.13961884     0.19166501    -0.07635254    -0.94218676
O      -0.01567576    -1.25339775     3.49427380     0.62700565     0.17286047    -1.65391903
O       5.68914202     6.54932699     1.60855501     1.79340220    -0.75626199     0.59787247
O       5.62918099     2.89507201     1.43535598     1.70148728     0.81090361     0.95392899
O       1.92738901     6.59423202     1.79174998    -1.27097441     0.81812302     0.21545544
O       1.82281602     2.52656202     1.47947799    -0.28654647     1.56081241     1.37703271
