# total energy = -19960.64651001 eV

CRYSTAL
PRIMVEC
        7.60600008     0.00000000     0.00000000
        0.00000000     7.60600008     0.00000000
       -1.89786986    -1.89786986     4.85670466
PRIMCOORD
24 1
Ti      3.75620199     6.70896500     1.29033099     0.34381627     0.96831175     1.04691220
Ti      3.69743802     3.00473701     1.19744001     1.11993773    -1.02429908    -0.28098260
Ti      0.04461800     6.44852899     1.20001297    -0.09300532     0.94461954    -0.23143099
Ti      0.08419501     2.77286000     1.10365498    -1.22307320    -0.95582775     0.11243515
Ti      5.69403421     2.83300322     3.47354884     1.17718053    -1.05281057    -0.15890889
Ti      5.67936324    -1.07365778     3.60860482     0.25135705     0.67284946     0.81045650
Ti      1.94289623     3.03441120     3.73201181    -0.52342975    -1.07029048    -1.03128992
Ti      1.81106125    -0.90179180     3.71201479     0.26612907     0.75886241     0.18118159
O       3.72957802     4.88635298     0.90820802     0.15140384    -1.05378682    -0.50056826
O       3.76780700     1.09119498     0.90175100    -0.29099499    -0.76289621    -0.45920099
O       0.08914599     4.63834702     0.72314299     0.13630631     0.42015004    -0.56965357
O       0.33523098     0.85275300     0.74192698    -0.91866064    -0.20764700    -0.05916548
O       5.81502725     4.63100321     4.01451579    -0.35170416     0.54813240     0.66894498
O       5.70759824     0.82519223     3.85461980     0.17328110     1.14247268     0.85524539
O       1.74293920     4.85589121     4.17973879     0.23155415     0.03504235     0.46721204
O       1.84730624     1.15175423     4.00819281    -0.32869972    -1.30554419     1.46601503
O       3.81116922     3.06848323     3.39797582    -0.65306713    -0.09003132    -1.27988740
O       3.80961222    -0.98426677     3.35867181    -0.92841515     0.03552212    -0.67601912
O      -0.05406175     2.95176822     3.02375183     0.29028100    -0.21912183     1.13071117
O       0.01233221    -1.06617680     3.20669581     0.12382875     0.50155711    -0.04717796
O       5.70676902     6.52292200     1.65786300    -0.15447965     0.22943273    -0.75507209
O       5.73746400     2.84061099     1.41505198    -1.32332980     0.01011344     1.10192123
O       1.87948598     6.38624599     1.79756400     0.84887393     0.85200528    -0.62879745
O       1.88457497     2.81910501     1.80571100     1.67490978     0.62318396    -1.16288031
