# total energy = -19922.01994440 eV

CRYSTAL
PRIMVEC
        7.39097470     0.00000000     0.00000000
        0.00002909     5.24415468     0.00000000
        0.00000000     0.00000000    11.48282950
PRIMCOORD
24 1
Ti      2.67889020     3.10768118     4.26004784     0.56354026    -0.49425954     1.36349276
Ti      4.71211372     2.13647349     7.22278178    -0.56354026     0.49425954    -1.36349276
Ti      6.37425014     2.13647532     1.48132106     0.56326926     0.49395178    -1.36407589
Ti      1.01675378     3.10767961    10.00150863    -0.56326926    -0.49395178     1.36407589
Ti      2.67887566     0.48560397     1.48136710     0.56352020    -0.52070489    -1.36413194
Ti      4.71212826     4.75855089    10.00146259    -0.56352020     0.52070489     1.36413194
Ti      1.01673923     0.48560202     7.22273569    -0.56334974    -0.52064216    -1.36432657
Ti      6.37426468     4.75855285     4.26009388     0.56334974     0.52064216     1.36432657
O       2.33930046     1.84655603     5.85960002     0.81243650     1.33406802    -1.39920823
O       5.05170346     3.39759870     5.62322961    -0.81243650    -1.33406802     1.39920823
O       1.35625074     1.84657717     0.11822217    -0.81238842     1.33398215    -1.39941263
O       6.03475330     3.39757757    11.36460708     0.81238842    -1.33398215     1.39941263
O       5.05168897     0.77552130     0.11818489    -0.81223030    -1.33416624    -1.39819110
O       2.33931494     4.46863337    11.36464436     0.81223030     1.33416624     1.39819110
O       6.03473876     0.77550023     5.85963724     0.81225370    -1.33512603    -1.39962963
O       1.35626510     4.46865457     5.62319233    -0.81225370     1.33512603     1.39962963
O       0.26854904     3.18979215     3.10179874    -1.83661397     0.52584838     0.26449205
O       7.12245487     2.05436259     8.38103089     1.83661397    -0.52584838    -0.26449205
O       3.96404466     2.05431369     2.63965260    -1.83672865    -0.52596563    -0.26416115
O       3.42695925     3.18984105     8.84317684     1.83672865     0.52596563     0.26416115
O       0.26853450     0.56771475     2.63961588    -1.83668545     0.52594737    -0.26441106
O       7.12246942     4.67643993     8.84321349     1.83668545    -0.52594737     0.26441106
O       3.42694477     0.56776365     8.38106747     1.83660575     0.52534393    -0.26459490
O       3.96405914     4.67639109     3.10176209    -1.83660575    -0.52534393     0.26459490
