# total energy = -19517.63287923 eV

CRYSTAL
PRIMVEC
        7.60600008     0.00000000     0.00000000
        0.00000000     7.60600008     0.00000000
       -1.89786986    -1.89786986     4.85670466
PRIMCOORD
23 1
Ti      3.81156298     6.55070502     1.17233600     0.24506427     2.10163362     1.05050018
Ti      3.76702102     2.81000401     1.24275600     0.45650108    -1.59654227     1.91582815
Ti      0.06720800     6.77863902     1.17674198    -0.55651626    -0.93004806     0.31748302
Ti     -0.01694801     2.91180798     1.21351398    -0.24272894    -0.28219847    -1.49628849
Ti      5.61409225     2.93481724     3.72497979    -1.66782922    -2.40920066    -1.12223038
Ti      5.77209420    -1.03192580     3.57161083    -0.56893675     3.11503327    -0.44401374
Ti      1.78379624     2.73678022     3.73007280     2.19378173     1.04467071    -1.30236374
Ti      1.90624722    -0.93769780     3.61533982     0.76284711    -0.69099220     0.42437488
O       3.95045502     4.67683901     0.93010199    -0.87403425     0.62886970    -0.77332101
O       3.80351303     0.89101098     0.82326698     0.08154642    -0.01084466    -0.92998764
O      -0.12871199     4.80427299     0.76178198     0.85887913     0.30517540     0.67781504
O      -0.05959398     0.90060898     0.70314702     0.49755595     1.25879432    -0.06425472
O       5.70429321     4.82187522     3.90277684     0.54061938    -1.06668399     0.33672028
O       5.65062521     1.04785123     4.10857180     1.01321351    -0.51172274    -0.19517714
O       1.77612825     4.77214722     3.85522380    -0.14531392    -0.93772564     1.66503314
O       2.08951522     0.93889522     4.09130983    -1.35959780     0.12435325     0.72074528
O       3.68068125     2.88106225     3.35830382     1.29226444     0.50982655    -1.28801029
O       3.85254421    -0.65911175     3.08643282    -0.04650742    -1.48185380     0.03788419
O       0.11056423    -0.71251679     3.06887382    -1.05537190     0.06563232     2.16226077
O       5.84555998     6.61238698     1.69489202    -1.75116024    -0.12327596    -1.33001390
O       5.81475801     2.65066202     1.65721101    -0.69792955     0.70435217     1.10361173
O       1.87903798     6.57635901     1.66844602     1.89255991    -0.33047044    -1.53985791
O       1.87017802     2.64131400     1.68254299    -0.86890644     0.51321732     0.07326233
