# total energy = -19938.88918750 eV

CRYSTAL
PRIMVEC
        5.36172504     0.00000000     0.00000000
        2.68543313     5.03513259     0.00000000
        0.00000000     0.00000000     9.93042816
PRIMCOORD
24 1
Ti      3.53475265     2.98381492     3.68411804     3.08865657    -4.39069918     1.04419480
Ti      4.51240566     2.05131781     6.24631023    -3.08865657     4.39069918    -1.04419480
Ti      5.71819057     2.05131960     1.28105642    -6.61747358     0.78353189     1.51540414
Ti      2.32896791     2.98381335     8.64937189     6.61747358    -0.78353189    -1.51540414
Ti      2.19203630     0.46624879     1.28109626     3.08865657    -4.39069918    -1.04419480
Ti      5.85512212     4.56888413     8.64933211    -3.08865657     4.39069918     1.04419480
Ti      0.98625129     0.46624685     6.24627039     6.61747358    -0.78353189     1.51540414
Ti      7.06090711     4.56888601     3.68415782    -6.61747358     0.78353189    -1.51540414
O       2.64260654     1.77295582     5.06742150     0.49117165     1.44340319    -1.37371907
O       5.40455184     3.26217694     4.86300677    -0.49117165    -1.44340319     1.37371907
O       1.92947157     1.77297609     0.10223933     1.64782783    -0.73220906    -0.15574180
O       6.11768687     3.26215671     9.82818862    -1.64782783     0.73220906     0.15574180
O       4.06183538     0.74461062     0.10220710    -0.49117165    -1.44340319    -1.37371907
O       3.98532298     4.29052209     9.82822084     0.49117165     1.44340319     1.37371907
O       4.77497041     0.74459039     5.06745367    -1.64782783     0.73220906    -0.15574180
O       3.27218792     4.29054238     4.86297454     1.64782783    -0.73220906     0.15574180
O       1.82823651     3.06265304     2.68245639     0.56438975    -0.06962678     0.11251743
O       6.21892187     1.97247972     7.24797182    -0.56438975     0.06962678    -0.11251743
O       3.92765261     1.97243270     2.28278928     1.86830078    -0.27395089    -1.25012867
O       4.11950576     3.06270006     7.64763877    -1.86830078     0.27395089     1.25012867
O       0.48552005     0.54508671     2.28275758     0.56438975    -0.06962678    -0.11251743
O       7.56163831     4.49004600     7.64767047    -0.56438975     0.06962678     0.11251743
O       2.77678930     0.54513374     7.24800347    -1.86830078     0.27395089    -1.25012867
O       5.27036906     4.48999897     2.68242469     1.86830078    -0.27395089     1.25012867
