# total energy = -19927.67036631 eV

CRYSTAL
PRIMVEC
        7.02349609     0.00000000     0.00000000
        0.00002967     5.52509153     0.00000000
        0.00000000     0.00000000    11.18248774
PRIMCOORD
24 1
Ti      2.54569713     3.27416417     4.14862320     0.48143307    -0.63231009     0.98021210
Ti      4.47782870     2.25092755     7.03386461    -0.48143307     0.63231009    -0.98021210
Ti      6.05732387     2.25092947     1.44257603     0.48120450     0.63215094    -0.98058774
Ti      0.96620195     3.27416250     9.73991190    -0.48120450    -0.63215094     0.98058774
Ti      2.54568241     0.51161853     1.44262086     0.48143307    -0.63231009    -0.98021210
Ti      4.47784341     5.01347338     9.73986707    -0.48143307     0.63231009     0.98021210
Ti      0.96618724     0.51161642     7.03381977    -0.48120450    -0.63215094    -0.98058774
Ti      6.05733858     5.01347549     4.14866803     0.48120450     0.63215094     0.98058774
O       2.22299134     1.94547869     5.70633790     0.85303141     1.30805539    -1.05628876
O       4.80053454     3.57961303     5.47614990    -0.85303141    -1.30805539     1.05628876
O       1.28881873     1.94550098     0.11513000    -0.85232256     1.30783119    -1.05660218
O       5.73470722     3.57959081    11.06735749     0.85232256    -1.30783119     1.05660218
O       4.80051983     0.81706720     0.11509372    -0.85303141    -1.30805539    -1.05628876
O       2.22300605     4.70802452    11.06739377     0.85303141     1.30805539     1.05628876
O       5.73469251     0.81704498     5.70637418     0.85232256    -1.30783119    -1.05660218
O       1.28883331     4.70804681     5.47611362    -0.85232256     1.30783119     1.05660218
O       0.25519792     3.36067386     3.02066892    -1.33416907     0.26784709     0.09480689
O       6.76832796     2.16441786     8.16181888     1.33416907    -0.26784709    -0.09480689
O       3.76695353     2.16436633     2.57061054    -1.33399423    -0.26759280    -0.09493673
O       3.25657235     3.36072546     8.61187707     1.33399423     0.26759280     0.09493673
O       0.25518321     0.59812810     2.57057483    -1.33416907     0.26784709    -0.09480689
O       6.76834268     4.92696369     8.61191279     1.33416907    -0.26784709     0.09480689
O       3.25655764     0.59817963     8.16185454     1.33399423     0.26759280    -0.09493673
O       3.76696824     4.92691209     3.02063320    -1.33399423    -0.26759280     0.09493673
