# total energy = -19904.77338699 eV

CRYSTAL
PRIMVEC
        7.88008302     0.00000000     0.00000000
        0.00002481     3.18119677     0.00000000
        0.00000000     0.00000000    12.19640381
PRIMCOORD
24 1
Ti      2.85616590     1.88517422     4.52477884    -0.27216628     0.21181527     1.63109688
Ti      5.02394216     1.29602244     7.67162508     0.27216628    -0.21181527    -1.63109688
Ti      6.79607292     1.29602352     1.57337439    -0.27173434    -0.21170883    -1.63121129
Ti      1.08403514     1.88517330    10.62302964     0.27173434     0.21170883     1.63121129
Ti      2.85615360     0.29457589     1.57342328    -0.27211358     0.21188572    -1.63050347
Ti      5.02395445     2.88662088    10.62298075     0.27211358    -0.21188572     1.63050347
Ti      1.08402284     0.29457475     7.67157618     0.27158444     0.21221765    -1.63139204
Ti      6.79608521     2.88662202     4.52482774    -0.27158444    -0.21221765     1.63139204
O       2.49410487     1.12015344     6.22373149     4.06122453    -0.00152826    -0.24354424
O       5.38600324     2.06104322     5.97267243    -4.06122453     0.00152826     0.24354424
O       1.44600036     1.12016625     0.12556882    -4.06139036    -0.00133723    -0.24291457
O       6.43410781     2.06103041    12.07083477     4.06139036     0.00133723     0.24291457
O       5.38599094     0.47044483     0.12552925    -4.05967081     0.00199698    -0.24256413
O       2.49411711     2.71075182    12.07087433     4.05967081    -0.00199698     0.24256413
O       6.43409551     0.47043202     6.22377111     4.06176600     0.00198361    -0.24196892
O       1.44601249     2.71076469     5.97263281    -4.06176600    -0.00198361     0.24196892
O       0.28631675     1.93498420     3.29455293    -0.48172515     0.08865938     1.03632594
O       7.59379130     1.24621246     8.90185099     0.48172515    -0.08865938    -1.03632594
O       4.22636864     1.24618289     2.80368776    -0.48286235    -0.08857788    -1.03750453
O       3.65373947     1.93501382     9.39271594     0.48286235     0.08857788     1.03750453
O       0.28630446     0.34438581     2.80364881    -0.48294283     0.08905122    -1.03746159
O       7.59380359     2.83681085     9.39275489     0.48294283    -0.08905122     1.03746159
O       3.65372717     0.34441538     8.90188983     0.48281144     0.08886147    -1.03818973
O       4.22638094     2.83678128     3.29451403    -0.48281144    -0.08886147     1.03818973
