# total energy = -19074.40155483 eV

CRYSTAL
PRIMVEC
        7.60600008     0.00000000     0.00000000
        0.00000000     7.60600008     0.00000000
       -1.89786986    -1.89786986     4.85670466
PRIMCOORD
22 1
Ti      3.89473599     6.84200900     1.09684098    -2.85490233    -1.63348158     0.96308238
Ti      3.85672402     3.02496100     1.19537701    -0.76060922     1.02815960    -0.58372342
Ti      0.13782199     6.57817202     1.26293199    -0.53795803     0.19278190    -0.97337091
Ti      0.06290499     2.75232501     1.24073401    -0.49652160    -0.30466555    -1.05608204
Ti      5.66596924     2.99162320     3.55913082     0.92817836    -1.55401312     0.17078996
Ti      5.52640424    -1.11810380     3.68741979     1.63772030    -0.30367671     0.90763806
Ti      1.79282723     2.95912621     3.59001482     0.58970381    -0.73679874     0.52324771
Ti      1.67048923    -0.81532276     3.85973583    -1.08442152     1.41910626    -1.30927358
O       3.34237601     4.81184498     0.72908200     1.26285692     0.75368009     0.12097816
O       3.62370701     1.07271499     0.89194598     1.18209751     0.21006641     0.15156504
O       0.07970499     4.56340600     0.75671701    -0.22164872     0.82666731    -0.51688114
O       7.20129802     0.89071998     0.75680702    -0.18701723    -0.28353133     0.27007803
O      -1.57712278     4.62625220     4.15999482    -0.36858423     2.00867972     0.15500981
O      -0.32854880    -0.65149980     3.82416279     0.95848884     0.20283389    -1.94506855
O       1.69257121     4.90685823     4.03206383     0.46927072    -0.80980472    -0.48275077
O       1.87701324     1.09670223     3.99983779     0.89291643    -0.63052343     0.55168027
O       3.90850021     3.13096224     3.16332079    -1.83825691    -0.29397130     0.71194130
O       0.04075924     2.61983824     3.07831683    -2.50760659     0.34389469     1.37679231
O       5.52054599     6.53299700     1.74240399     1.42465290    -0.24711653     0.22636952
O       5.66741299     3.07419099     1.46413598     0.19106826    -0.30875618     0.67229076
O       1.82564802     6.84642800     1.80435599     0.01821679    -0.33467728     0.19271737
O       1.85104398     2.69801598     1.64125901     1.30235551     0.45514662    -0.12703054
