# total energy = -39030.86098011 eV

CRYSTAL
PRIMVEC
        5.93200024     0.00000000     0.00000000
        0.00000000     9.29399984     0.00000000
        0.00000000     0.00000000     9.29399984
PRIMCOORD
46 1
Ti      4.49936201     7.04886698     6.63835201    -1.39646486     2.17061171     3.76449752
Ti      4.22507801     6.80225303     2.49509698     3.19845943    -0.63717976     0.24327813
Ti      4.54990600     2.16557799     7.17150900    -1.60243935    -0.25247548    -0.47772914
Ti      4.29338299     2.78208399     2.02432201    -1.24907040    -1.80466492     2.67063953
Ti      1.45751899     6.84244600     7.23256600    -0.14943489     0.54045894    -1.47805268
Ti      1.49508401     7.12360501     2.04875402    -3.07777515    -0.34994424     1.19749534
Ti      1.43551299     2.43699501     6.78685302     2.15926929    -0.60588403     0.13769162
Ti      1.40261801     2.00758403     2.77182001     1.34819804    -0.05828924     0.15518516
Ti      2.90121300     4.70739799     4.89890300    -0.52311222    -0.65437222    -1.79058735
Ti      2.97996400     4.70316499     9.01118698     0.26991065    -0.58041030     0.97652925
Ti      3.04915202     9.13692902     4.52900699    -0.52543675     0.97905511     1.01320734
Ti      3.02443701     9.26833998     9.21258200     0.61916995    -0.36914216    -0.63679076
Ti      5.91035901     4.57001701     4.76495099     0.05864688     1.04500007    -2.59217508
Ti      0.06917299     4.88035301     0.08465899    -0.49262663     0.69342755    -0.23069566
Ti      0.03823300     9.19471798     4.78943401     0.31964069     0.29489407    -0.17183229
Ti      0.03282502     0.03156299     9.26194498    -0.20208698    -1.49115528     1.29854590
O       4.33028802     5.87279298     5.38389702     0.09235972    -2.98519277    -1.72712016
O       4.44136497     5.73162997     0.86991401     0.08191692    -2.00216917     0.58705146
O       4.60176902     0.68733103     5.65897299    -0.17858966     1.57311103     0.27628082
O       4.49095502     0.99164499     0.63298500    -0.60349753     0.88083662     0.94615243
O       1.23746602     5.56966702     5.74528100     1.21777750    -1.00413983    -0.21228115
O       1.75966999     5.48362201     0.96124502    -1.16837090    -0.39055714    -0.95477771
O       1.57133998     0.97338901     5.40488800    -0.81051512     0.55808772    -0.72766155
O       1.49669101     0.81452799     0.84467098     0.00008819     0.73910142     1.06485799
O       4.33768502     8.46206197     7.99655401    -0.03502178     0.69363735     2.04839891
O       4.55078100     8.40849400     3.78679298     0.27124249    -0.65882460    -1.17371443
O       4.72664200     3.79805398     8.49472100    -1.97753053    -2.28136973     0.36009599
O       4.32559602     3.77351000     3.87775400     0.17620085     0.70326897    -1.32322336
O       1.49898902     7.98179600     8.68805701    -0.36345153     1.35109053    -0.61099333
O       1.73204000     8.32584900     3.55919999    -1.27746131     1.49528936    -0.19089934
O       1.35936698     4.02443199     8.20055501     1.36830201    -1.70299806     0.28731729
O       1.46632100     3.68861801     4.00283600    -0.31311883    -0.77023286    -0.64853813
O       3.06663598     6.01580498     7.84739799     0.28439523     1.00349217    -1.53403102
O       2.70368601     5.91691599     3.19359201     1.55636800     0.98512703     0.18744172
O       2.86319500     1.43301400     7.79134701     0.40143883     0.31852483     0.47465307
O       3.22924702     1.56010201     3.20556300    -0.47920650     0.33231006    -1.44174663
O       5.69610398     6.00010398     7.93615398     1.02525425     1.83301957    -1.07979277
O       0.06002399     6.17660698     3.23760299    -1.03288246    -0.85185719    -0.39931972
O       0.20745902     1.29290200     7.82817298    -0.12044929     1.12612586    -0.79185456
O       2.75325002     7.89250501     5.87330300     0.58830873    -1.01003768     1.84680814
O       3.12517801     7.85550700     1.37232902    -0.32342459     0.70117660     0.04320226
O       3.12094401     3.21808201     6.05709198    -0.47307133     0.34385047     1.18530317
O       0.06650202     7.80455802     5.95219798     1.77598760    -0.22239125     1.01663359
O       5.75052002     7.97226398     1.51847502     1.55201692     0.03150194    -1.11604816
O       5.80514698     3.14619402     5.98541402    -0.40304088    -0.45038674     1.25127615
O       0.11072399     3.03617400     1.94121102     0.41312629     0.74067596    -1.72267807
