# total energy = -4987.51736066 eV

CRYSTAL
PRIMVEC
        3.19500385     0.00000000     0.00000000
        1.46877968     4.78577521     0.00000000
       -0.00000978    -0.00006561     5.06466108
PRIMCOORD
6 1
Ti      2.33188694     2.39285485     2.53233054     0.00000000     0.00000000     0.00000000
Ti      0.00000000     0.00000000     0.00000000     0.00000000     0.00000000     0.00000000
O       1.88374356     0.93266441     0.98702783     0.12379943     0.06243644    -0.23683237
O       2.78003037     3.85304528     4.07763320    -0.12379943    -0.06243644     0.23683237
O       0.44813937     1.46016388     3.51935950    -0.12391925    -0.06226520    -0.23689331
O       1.02063073     3.32554558     1.54530159     0.12391925     0.06226520     0.23689331
