# total energy = -19517.93171505 eV

CRYSTAL
PRIMVEC
        5.93400000     0.00000000     0.00000000
        0.00000000     9.29699974     0.00000000
        0.00000000     0.00000000     4.64899994
PRIMCOORD
23 1
Ti      4.51977899     6.92766602     2.27799900    -0.01597915     0.50217880     0.18384011
Ti      4.45030299     2.29997800     2.34547502     0.07661042    -0.14115516     0.50096112
Ti      1.46779000     7.06005802     2.32863200     0.44061860    -0.08689715    -0.26101772
Ti      1.42171501     2.38093800     2.31068802    -0.00984373    -0.61101184     0.26137819
Ti      2.96258698     4.58018499     0.09343699    -0.08328038     0.22974718     0.02313608
Ti      2.99391798     0.01587500     4.58816202    -0.08547507    -0.45838698    -0.16136866
Ti      0.01200603     4.64667098     0.00334900     0.08177191     0.17933683    -0.28528200
Ti      0.01234698     0.00034402     0.07449699     0.01391893     0.36077244    -0.84375847
O       4.41476397     5.63780002     0.84720399    -0.26063668    -0.55205925    -0.33644851
O       4.40343101     0.92059802     0.84714298     0.40455115    -0.17559176     0.38972745
O       1.49845100     5.58806302     0.97443598     0.43438933    -0.48837197    -0.81367269
O       1.49233901     0.94868199     0.97023500    -0.27084474    -0.67804078    -0.66171941
O       4.46556700     8.31977399     3.59421803    -0.42871876     0.68128551     1.49022454
O       4.48521398     3.73579501     3.68389399    -0.56971965     0.69967713     0.14359437
O       1.46311398     8.39641299     3.71180200     0.15993965    -0.06895856     0.39944494
O       1.43835398     3.64151700     3.82736199     0.24472669     0.92039691    -0.71010039
O       2.91268101     1.52920499     3.27529502     0.24160845    -0.62321867    -0.24885228
O       0.04577500     6.02245801     3.23425298    -0.07680402    -0.11575728     0.08414144
O       5.88515398     1.30983398     3.22793497     0.18650712     0.89646893    -0.44753461
O       2.98687399     7.85397201     1.35652598    -0.21518187    -0.39060188     0.70935143
O       2.99272802     3.31171897     1.28742602    -0.19144210    -1.56643721     1.90361823
O       0.02911200     7.74981802     1.47864702    -0.30205871     1.95245816    -1.82630745
O       5.86351799     3.28365602     1.39434501     0.22534262    -0.46583341     0.50664429
