# total energy = -4987.71608290 eV

CRYSTAL
PRIMVEC
        3.51791210     0.00000000     0.00000000
       -0.00000783     3.51791210     0.00000000
       -1.75898364    -1.75898755     4.48963823
PRIMCOORD
6 1
Ti     -0.00015492     2.63856731     1.12240943     0.00195738    -0.00190287    -0.00054250
Ti      1.75907545    -0.87964287     3.36722850    -0.00195738     0.00190287     0.00054250
O       0.00003514     0.87947205     0.73132533     0.00049751     0.00299199     1.69867321
O       1.75888529     0.87945230     3.75831265    -0.00049751    -0.00299199    -1.69867321
O      -0.00001987    -0.87945678     2.97614440     0.00302748     0.00046948     1.69876526
O       1.75894025     2.63838107     1.51349359    -0.00302748    -0.00046948    -1.69876526
