# total energy = -4986.94408485 eV

CRYSTAL
PRIMVEC
        2.76688498     0.00000000     0.00000000
        0.64665709     4.28679464     0.00000000
       -0.00000406    -0.00005628     4.34760729
PRIMCOORD
6 1
Ti      1.70676875     2.14336910     2.17380360     0.00000000     0.00000000     0.00000000
Ti      0.00000000     0.00000000     0.00000000     0.00000000     0.00000000     0.00000000
O       1.50946552     0.83542212     0.84728460    -2.61947095     1.45796721     1.55254528
O       1.90407199     3.45131609     3.50032255     2.61947095    -1.45796721    -1.55254528
O       0.19730147     1.30792419     3.02108912     2.62019421    -1.46004518     1.55463224
O       0.44935116     2.97881411     1.32651802    -2.62019421     1.46004518    -1.55463224
