# total energy = -19072.30289074 eV

CRYSTAL
PRIMVEC
        5.17600016     0.00000000     0.00000000
        0.00000000     5.50899976     0.00000000
        0.00000000     0.00000000     9.26300011
PRIMCOORD
22 1
Ti      1.82922901     3.29221001     3.36690602    -2.61706723     0.00745337    -1.47877285
Ti      3.61923102     2.31345001     5.83362000     0.61606868     1.51796059    -1.05935634
Ti      4.29866402     2.07629102     1.63738998     1.35893651    -0.23139937     0.48395379
Ti      1.03338501     3.13858202     8.19628201    -0.59003137     2.01469507    -0.52119700
Ti      1.84617300     0.35050801     1.20331700    -1.37874918     0.72975340    -0.39992265
Ti      3.52538699     5.32031600     7.85065301    -1.33748245    -0.57836190     0.12075088
Ti      1.08650001     5.45876502     6.18439800     1.00530557    -1.20724985    -0.68333005
Ti      4.19974100     5.08152599     3.52561702     1.04064333     0.68999076     0.93661132
O       3.04297202     3.82773903     4.50217099     2.61789281    -0.10769430     3.16852690
O       0.72311399     2.45731198     0.57168198    -0.33319658    -0.70488850    -0.80278509
O       4.67869700     3.61888801     7.23135503    -0.12914245     0.16886678    -0.05779379
O       3.38590502     0.86370099     0.28761302     1.32716718     0.47016187    -1.86432739
O       1.50248201     5.07635201     8.73067700    -0.78184268    -0.24039258     1.60049097
O       3.77744702     1.31649701     4.32422302     0.82117774    -0.78926006     0.47455460
O       0.79771999     4.97299702     4.42106102    -0.27677062     0.38099392     1.76423199
O       5.09555601     3.52484400     2.81380102     0.13627392    -2.01844117    -0.97974956
O       4.83467702     0.84758003     6.76442500    -0.17441856     0.85027776     0.97455645
O       2.49917397     1.86268201     2.30121501    -0.57238845     1.21472894     0.40246753
O       2.19163399     4.03304498     6.92290898     1.39376469    -1.68336897    -1.30405861
O       5.17287801     0.52439799     2.11124302     0.66237736     0.30642136    -0.28066918
O       2.53018498     1.10721598     6.64044697    -1.80057455    -0.41811681     1.36793203
O       2.70006299     4.71432598     2.39676701    -0.98794393    -0.37213055    -1.86211367
