# total energy = -19904.86582084 eV

CRYSTAL
PRIMVEC
        7.58894704     0.00000000     0.00000000
        0.00003206     5.96990822     0.00000000
        0.00000000     0.00000000    12.08277277
PRIMCOORD
24 1
Ti      2.75064732     3.53776213     4.48262252     0.50456016    -0.85142858     1.26939395
Ti      4.83833185     2.43214629     7.60015032    -0.50456016     0.85142858    -1.26939395
Ti      6.54498977     2.43214837     1.55871562     0.50506589     0.85154017    -1.26954256
Ti      1.04398940     3.53776033    10.52405735    -0.50506589    -0.85154017     1.26954256
Ti      2.75063142     0.55280816     1.55876407     0.50456016    -0.85142858    -1.26939395
Ti      4.83834775     5.41710047    10.52400891    -0.50456016     0.85142858     1.26939395
Ti      1.04397350     0.55280588     7.60010187    -0.50506589    -0.85154017    -1.26954256
Ti      6.54500567     5.41710275     4.48267096     0.50506589     0.85154017     1.26954256
O       2.40196099     2.10210621     6.16574646     0.77175264     1.48512887    -1.29132984
O       5.18701825     3.86780222     5.91702638    -0.77175264    -1.48512887     1.29132984
O       1.39257956     2.10213029     0.12439894    -0.77148550     1.48642471    -1.29304837
O       6.19639975     3.86777820    11.95837356     0.77148550    -1.48642471     1.29304837
O       5.18700236     0.88284804     0.12435974    -0.77175264    -1.48512887    -1.29132984
O       2.40197688     5.08706039    11.95841276     0.77175264     1.48512887     1.29132984
O       6.19638385     0.88282402     6.16578566     0.77148550    -1.48642471    -1.29304837
O       1.39259532     5.08708447     5.91698717    -0.77148550     1.48642471     1.29304837
O       0.27574351     3.63123659     3.26385837    -1.40689763     0.30790103     0.00050214
O       7.31323572     2.33867184     8.81891447     1.40689763    -0.30790103    -0.00050214
O       4.07022521     2.33861616     2.77756648    -1.40733677    -0.30779690    -0.00052605
O       3.51875402     3.63129234     9.30520616     1.40733677     0.30779690     0.00052605
O       0.27572762     0.64628248     2.77752788    -1.40689763     0.30790103    -0.00050214
O       7.31325162     5.32362602     9.30524475     1.40689763    -0.30790103     0.00050214
O       3.51873813     0.64633816     8.81895300     1.40733677     0.30779690    -0.00052605
O       4.07024111     5.32357027     3.26381977    -1.40733677    -0.30779690     0.00052605
