# total energy = -4986.49306467 eV

CRYSTAL
PRIMVEC
        3.84178953     0.00000000     0.00000000
        1.80789429     3.38981784     0.00000000
       -2.82487801    -1.69493058     5.07369574
PRIMCOORD
6 1
Ti      1.35583008     2.54249393     1.26842360     0.00050496    -0.00050496    -0.00000000
Ti      1.46897560    -0.84760679     3.80527152    -0.00050496     0.00050496     0.00000000
O       0.45201338     0.84745014     0.82646347    -0.00001646    -0.00008073    -2.77831505
O       2.37279213     0.84743698     4.24723170     0.00001646     0.00008073     2.77831505
O      -0.45197687    -0.84742819     3.36331134    -0.00008073    -0.00001646    -2.77831505
O       3.27678231     2.54231523     1.71038378     0.00008073     0.00001646     2.77831505
