# total energy = -19934.69125426 eV

CRYSTAL
PRIMVEC
        5.12399479     0.00000000     0.00000000
        0.00002383     4.46193833     0.00000000
        0.00000000     0.00000000     8.42132617
PRIMCOORD
24 1
Ti      1.85721577     2.64414043     3.12425205    -0.91685187     2.46034018    -4.29775711
Ti      3.26680289     1.81779771     5.29707445     0.91685187    -2.46034018     4.29775711
Ti      4.41912439     1.81779915     1.08637755    -0.91462607    -2.45993034     4.29961139
Ti      0.70489428     2.64413913     7.33494905     0.91462607     2.45993034    -4.29961139
Ti      1.85720405     0.41317136     1.08641132    -0.91685187     2.46034018     4.29775711
Ti      3.26681462     4.04876692     7.33491528     0.91685187    -2.46034018    -4.29775711
Ti      0.70488255     0.41316973     5.29704069     0.91462607     2.45993034     4.29961139
Ti      4.41913611     4.04876850     3.12428582    -0.91462607    -2.45993034    -4.29961139
O       1.62178511     1.57112427     4.29733842    -0.23739596    -3.08423710     2.54010200
O       3.50223356     2.89081387     4.12398809     0.23739596     3.08423710    -2.54010200
O       0.94025901     1.57114230     0.08670228     0.23845422    -3.08471173     2.54052083
O       4.18375970     2.89079588     8.33462399    -0.23845422     3.08471173    -2.54052083
O       3.50222183     0.65984466     0.08667495     0.23739596     3.08423710     2.54010200
O       1.62179683     3.80209348     8.33465132    -0.23739596    -3.08423710    -2.54010200
O       4.18374793     0.65982667     4.29736575    -0.23845422     3.08471173     2.54052083
O       0.94027064     3.80211151     4.12396076     0.23845422    -3.08471173    -2.54052083
O       0.18618098     2.71400384     2.27481038     2.24210332    -0.73052627     0.74035509
O       4.93783768     1.74793429     6.14651613    -2.24210332     0.73052627    -0.74035509
O       2.74818351     1.74789282     1.93587967     2.24096766     0.73011541    -0.74030058
O       2.37583516     2.71404531     6.48544670    -2.24096766    -0.73011541     0.74030058
O       0.18616921     0.48303463     1.93585276     2.24210332    -0.73052627    -0.74035509
O       4.93784945     3.97890350     6.48547361    -2.24210332     0.73052627     0.74035509
O       2.37582339     0.48307610     6.14654299    -2.24096766    -0.73011541    -0.74030058
O       2.74819528     3.97886203     2.27478347     2.24096766     0.73011541     0.74030058
