# total energy = -4982.59751603 eV

CRYSTAL
PRIMVEC
        2.85916099     0.00000000     0.00000000
        1.72302953     4.13527059     0.00000000
       -0.00001098    -0.00005952     4.57591692
PRIMCOORD
6 1
Ti      2.29108969     2.06760540     2.28795841     0.00000000     0.00000000     0.00000000
Ti      0.00000000     0.00000000     0.00000000     0.00000000     0.00000000     0.00000000
O       1.76537136     0.80589163     0.89177879    -6.63909245     2.93353492     3.71868224
O       2.81680802     3.32931917     3.68413798     6.63909245    -2.93353492    -3.71868224
O       0.52571362     1.26168974     3.17973820     6.64082691    -2.93718383     3.72391598
O       1.19730491     2.87352123     1.39617862    -6.64082691     2.93718383    -3.72391598
