# total energy = -4816.90937188 eV

CRYSTAL
PRIMVEC
        5.19129731     0.00000000     0.00000000
       -0.00000642     1.73043244     0.00000000
       -2.59568169    -0.86532882     5.88911137
PRIMCOORD
6 1
Ti     -0.00022217     1.29786559     1.47227748    -0.09681493    -0.06001831   181.90164557
Ti      2.59583122    -0.43276202     4.41683302     0.09681493     0.06001831  -181.90164557
O       0.00005481     0.43258935     0.95928796     0.09733403     0.05959691  -175.67027290
O       2.59555410     0.43251417     4.92982259    -0.09733403    -0.05959691   175.67027290
O      -0.00002381    -0.43266203     3.90384350    -0.00081838     0.00104747    -0.02584782
O       2.59563263     1.29776550     1.98526705     0.00081838    -0.00104747     0.02584782
