# total energy = -4982.08636710 eV

CRYSTAL
PRIMVEC
        4.60941585     0.00000000     0.00000000
       -0.00000748     3.07294354     0.00000000
       -2.30473509    -1.53651866     5.10645814
PRIMCOORD
6 1
Ti     -0.00019810     2.30481929     1.27661427    -0.00685996    -0.01094596    12.25501427
Ti      2.30487143    -0.76839473     3.82984318     0.00685996     0.01094596   -12.25501427
O       0.00004851     0.76822754     0.83180018     0.00441613     0.00545460    -5.55146630
O       2.30462472     0.76819697     4.27465732    -0.00441613    -0.00545460     5.55146630
O      -0.00001975    -0.76823037     3.38502914    -0.00221218    -0.00006299    -1.48360986
O       2.30469292     2.30465482     1.72142841     0.00221218     0.00006299     1.48360986
