# total energy = -19909.54553334 eV

CRYSTAL
PRIMVEC
        6.15655751     0.00000000     0.00000000
        0.00002166     3.52823642     0.00000000
        0.00000000     0.00000000     9.31435693
PRIMCOORD
24 1
Ti      2.23146890     2.09082974     3.45556012    -1.16233601     2.82569716    -4.19523022
Ti      3.92511042     1.43740696     5.85879721     1.16233601    -2.82569716     4.19523022
Ti      5.30964215     1.43740821     1.20158136    -1.15735295    -2.82530301     4.19978184
Ti      0.84693717     2.09082859     8.11277606     1.15735295     2.82530301    -4.19978184
Ti      2.23145817     0.32671158     1.20161869    -1.16233601     2.82569716     4.19523022
Ti      3.92512115     3.20152522     8.11273873     1.16233601    -2.82569716    -4.19523022
Ti      0.84692644     0.32671019     5.85875987     1.15735295     2.82530301     4.19978184
Ti      5.30965288     3.20152657     3.45559745    -1.15735295    -2.82530301    -4.19978184
O       1.94859701     1.24235208     4.75304520     4.70829970    -3.28267620     5.72748974
O       4.20798231     2.28588458     4.56131212    -4.70829970     3.28267620    -5.72748974
O       1.12973310     1.24236629     0.09589651    -4.70425613    -3.28449912     5.72806078
O       5.02684627     2.28587041     9.21846052     4.70425613     3.28449912    -5.72806078
O       4.20797157     0.52176637     0.09586630    -4.70829970     3.28267620     5.72748974
O       1.94860775     3.00647034     9.21849073     4.70829970    -3.28267620    -5.72748974
O       5.02683553     0.52175216     4.75307541     4.70425613     3.28449912     5.72806078
O       1.12974369     3.00648455     4.56128186    -4.70425613    -3.28449912    -5.72806078
O       0.22369514     2.14607342     2.51604027     4.18903129    -1.01957031     2.09109569
O       5.93288418     1.38216329     6.79831705    -4.18903129     1.01957031    -2.09109569
O       3.30198149     1.38213030     2.14116798     4.19223565     1.02021206    -2.09034570
O       2.85459782     2.14610641     7.17318915    -4.19223565    -1.02021206     2.09034570
O       0.22368441     0.38195516     2.14113825     4.18903129    -1.01957031    -2.09109569
O       5.93289491     3.14628155     7.17321888    -4.18903129     1.01957031     2.09109569
O       2.85458709     0.38198815     6.79834674    -4.19223565    -1.02021206    -2.09034570
O       3.30199223     3.14624855     2.51601054     4.19223565     1.02021206     2.09034570
