# total energy = -19074.88932210 eV

CRYSTAL
PRIMVEC
        7.60600008     0.00000000     0.00000000
        0.00000000     7.60600008     0.00000000
       -1.89786986    -1.89786986     4.85670466
PRIMCOORD
22 1
Ti      3.87421000     6.39147299     1.24783398     0.00660748     1.07389954     1.46396766
Ti      3.69890802     2.70908398     1.19081402     1.00599925    -1.01655363    -0.53996683
Ti      0.13383798     6.81098699     1.09677901     0.02222565    -0.45969336    -0.66798879
Ti     -0.00311902     2.98726601     1.14106602    -0.82140452     0.22140677    -0.34029026
Ti      5.65754823     3.00865922     3.47618583    -0.52490967     0.34844117     0.49863916
Ti      6.12351822    -0.58402578     3.63041883    -0.47333513    -2.27953885    -0.81903319
Ti      1.87597420     2.70491020     3.68491880     0.07193846    -0.92691234    -1.16529869
Ti      1.32540322    -1.30966480     3.92695283     0.99959566     3.37041256    -1.60604867
O       4.02866001     4.52444998     0.73532200     0.05401710     0.55113082     0.49413253
O       3.82355800     0.69234599     0.93123300    -0.82739442     0.84098450     0.25584903
O      -0.07684601     4.92025499     0.62854203     0.82662489    -0.09988045    -0.11599511
O       0.31734400     1.10412198     0.66140499     0.44177457     0.20010106     1.77296295
O       5.73645522     5.06475022     3.89013082     0.01004068    -0.76159138    -0.15814681
O       5.30548322     1.04581120     4.00269481     1.46577309     0.66754167    -0.39730063
O       1.82648020     4.56206025     4.27820179    -0.13803564    -0.81859661    -1.08870653
O       1.70292224     0.65583524     3.97469980    -0.31055030     1.18575234     0.95342737
O       3.77419920     3.01458023     3.25889079    -0.11949515    -0.38588802    -0.62421214
O      -0.03663076     3.09066920     3.04137581     0.13483050    -0.76910672     1.40157493
O       5.94390303     6.83589198     1.69799999    -0.55061634    -0.21937277     0.16329237
O       5.71042298     2.62425502     1.44015599    -0.17622193     0.54095311     1.41062907
O       2.09052801     6.45827501     2.09452499    -0.45768096    -0.59523194    -0.29999797
O       1.94985502     3.11040201     1.70008902    -0.63978301    -0.66825721    -0.59148996
