# total energy = -19074.32519381 eV

CRYSTAL
PRIMVEC
        7.60600008     0.00000000     0.00000000
        0.00000000     7.60600008     0.00000000
       -1.89786986    -1.89786986     4.85670466
PRIMCOORD
22 1
Ti      3.80700300     6.60480599     1.17130902     0.58129784    -0.57633176     1.86625700
Ti      3.84204200     2.69240601     1.21560799     0.30374587     1.72189722     0.86476593
Ti      0.24138002     6.79581098     1.02598198    -0.68225970    -1.23274826     0.83449504
Ti      0.05487102     2.87179900     0.95894601    -0.21814970     1.04103800     1.63919612
Ti      5.77732422     2.88187824     3.54142783    -1.25169627     0.68327503     0.64236517
Ti      6.04391721    -0.88912277     3.63061680    -1.65552700    -0.65341140    -0.99052300
Ti      1.83377422     2.81785721     3.77427381     1.66396048    -1.30112472    -1.01267332
Ti      1.08494825    -1.00349776     4.05025779     2.87983150     0.37767308    -3.40752414
O       3.90080300     4.79281302     0.82339297    -0.22413780    -1.56758675     0.03876325
O       3.93329798     0.85985202     0.75084198     0.16650933     0.88270915     2.55136266
O       0.23948297     4.80112401     0.69671000    -0.09083659    -0.07804047    -0.06522171
O      -0.20019701     1.03248699     0.69138701     0.75440591     0.17355441     0.66250231
O       5.42468521     4.84731923     4.09137582     1.11990816    -0.03019145    -1.79070434
O       5.45425420     1.00404922     3.90326580     1.29121183    -0.73914795     0.22889846
O       1.77997325     4.76347522     4.22974683    -0.87359484     0.36651578    -2.22691221
O       2.12686222     0.87656021     4.09468783    -1.87654271     0.09710366     0.36290903
O       3.79397021     2.82758122     3.23688982    -0.55430202     0.49810669    -0.70262593
O       0.07690723     2.84171221     3.14835481     0.18055013     0.02728404     0.30007433
O       5.83000598     6.63213498     1.74989899    -0.45379756     0.06383923     0.56842767
O       5.77716203     2.89573300     1.65092602    -0.24129658     0.19795882    -0.66129441
O       2.00661500     6.61559300     1.90448098    -0.73331669     0.33571781     0.58775517
O       1.95556199     2.75396001     1.44273298    -0.08596307    -0.28809067    -0.29029308
