# total energy = -4988.43604311 eV

CRYSTAL
PRIMVEC
        4.01875071     0.00000000     0.00000000
        1.17908715     3.84188896     0.00000000
       -2.59895520    -1.92097129     5.18882674
PRIMCOORD
6 1
Ti      0.88419238     2.88156401     1.29720638     0.00012161    -0.00012161     0.00000000
Ti      1.71469003    -0.96064652     3.89161958    -0.00012161     0.00012161    -0.00000000
O       0.29481382     0.96046691     0.84521733    -0.00057130    -0.00087572    -1.24970290
O       2.30406841     0.96045049     4.34360863     0.00057130     0.00087572     1.24970290
O      -0.29478287    -0.96044404     3.43963053    -0.00087572    -0.00057130    -1.24970290
O       2.89366508     2.88136133     1.74919549     0.00087572     0.00057130     1.24970290
