# total energy = -4987.67818777 eV

CRYSTAL
PRIMVEC
        4.05399068     0.00000000     0.00000000
        1.37672630     3.81306506     0.00000000
       -2.71539547    -1.90655850     5.25735222
PRIMCOORD
6 1
Ti      1.03242785     2.85994505     1.31433811     0.00013987    -0.00013987     0.00000000
Ti      1.68289296    -0.95343898     3.94301422    -0.00013987     0.00013987     0.00000000
O       0.34422381     0.95326102     0.85637977    -0.00056616    -0.00089269    -1.49765401
O       2.37109681     0.95324492     4.40097267     0.00056616     0.00089269     1.49765401
O      -0.34419093    -0.95323798     3.48505588    -0.00089269    -0.00056616    -1.49765401
O       3.05951148     2.85974387     1.77229656     0.00089269     0.00056616     1.49765401
