# total energy = -19946.73605058 eV

CRYSTAL
PRIMVEC
        5.07050846     0.00000000     0.00000000
        1.83269331     5.07582884     0.00000000
        0.00000000     0.00000000     9.22165106
PRIMCOORD
24 1
Ti      2.92386787     3.00793139     3.42116679     2.67579510    -2.94043448     1.15743728
Ti      3.97933408     2.06789732     5.80048438    -2.67579510     2.94043448    -1.15743728
Ti      5.11962778     2.06789904     1.18962198    -5.38449314     0.46010654     1.73019957
Ti      1.78357420     3.00792982     8.03202929     5.38449314    -0.46010654    -1.73019957
Ti      2.00752135     0.47001710     1.18965895     2.67672327    -2.94156037    -1.15747533
Ti      4.89568062     4.60581170     8.03199232    -2.67672327     2.94156037     1.15747533
Ti      0.86722757     0.47001524     5.80044740     5.38475102    -0.45967331     1.73029933
Ti      6.03597441     4.60581362     3.42120376    -5.38475102     0.45967331    -1.73029933
O       2.25017046     1.78728557     4.70573795    -0.36875212     0.60970932    -1.04816253
O       4.65303150     3.28854314     4.51591321     0.36875212    -0.60970932     1.04816253
O       1.57576583     1.78730604     0.09494209     1.11532183    -0.70745190    -0.23734068
O       5.32743618     3.28852271     9.12670882    -1.11532183     0.70745190     0.23734068
O       3.73668495     0.75062875     0.09491217     0.36821013    -0.61026982    -1.04823581
O       3.16651700     4.32519995     9.12673874    -0.36821013     0.61026982     1.04823581
O       4.41108963     0.75060827     4.70576788    -1.11557971     0.70755037    -0.23809813
O       2.49211228     4.32522045     4.51588329     1.11557971    -0.70755037     0.23809813
O       1.29897122     3.08740676     2.49099802    -0.01882408    -1.02707922    -1.12102196
O       5.60423073     1.98842195     6.73065315     0.01882408     1.02707922     1.12102196
O       3.43741595     1.98837467     2.11985688     1.78651730    -1.36791275    -2.08861920
O       3.46578600     3.08745404     7.10179413    -1.78651730     1.36791275     2.08861920
O       0.38262468     0.54949237     2.11982741    -0.01875415    -1.02686273     1.12033085
O       6.52057727     4.52633634     7.10182360     0.01875415     1.02686273    -1.12033085
O       2.54943946     0.54953965     6.73068251    -1.78695593     1.36794077    -2.08818957
O       4.35376250     4.52628906     2.49096860     1.78695593    -1.36794077     2.08818957
