# total energy = -39040.42797853 eV

CRYSTAL
PRIMVEC
        7.60629642    -0.00000847    -0.00005503
       -0.00000847     7.60629642    -0.00005503
       -3.80314186    -3.80314186     9.70738094
PRIMCOORD
46 1
Ti      1.88815285     4.81973151     6.12951102    -0.06862585     0.04524860     0.01233179
Ti      3.78973367     6.72134347     1.27584254    -0.06860837     0.04569135     0.01231276
Ti      1.93472774     0.88092492     6.07053225    -0.06396650    -0.01995742    -0.02200839
Ti      3.83628997     2.78250746     1.21683703    -0.06404697    -0.01963269    -0.02178497
Ti     -1.88922974     4.74365904     6.07472570     0.06334969    -0.05461359     0.06598713
Ti      0.01234905     6.64524127     1.22106750     0.06322139    -0.05460794     0.06565906
Ti     -1.93524324     0.95879447     6.02336370     0.05464008     0.04480997     0.04914434
Ti     -0.03365397     2.86036602     1.16967008     0.05454880     0.04486577     0.04945133
Ti      3.80790505     0.96250939     8.50396575    -0.02145355     0.01157331    -0.13274045
Ti      5.70947900     2.86406268     3.65024433    -0.02155485     0.01174378    -0.13284304
Ti      3.81271390    -2.86475388     8.50032588    -0.02811837    -0.00718829     0.01315531
Ti      5.71427117    -0.96317205     3.64660773    -0.02796436    -0.00733896     0.01328001
Ti     -0.00633924     0.96708990     8.34712887     0.03468779    -0.04905332     0.06038007
Ti      1.89523726     2.86863274     3.49348063     0.03477058    -0.04925336     0.06028828
Ti     -0.00376559    -2.86272719     8.56751201     0.03116795    -0.01570173     0.07022251
Ti      1.89779955    -0.96110679     3.71376791     0.03099363    -0.01569890     0.07041766
O       1.89362216    -0.95418791     5.68404629     0.01222277     0.01118610    -0.00667279
O       3.79519851     0.94745734     0.83042644     0.01222611     0.01008104    -0.00701037
O      -1.90183310     2.85554049     5.61873779     0.00731196    -0.00524685    -0.02465895
O      -0.00026561     4.75710418     0.76507666     0.00736416    -0.00504451    -0.02479367
O      -1.89924187    -0.95221880     5.67216985     0.00440302     0.00282770     0.01138948
O       0.00233454     0.94936105     0.81854458     0.00440636     0.00269169     0.01099456
O       3.82586153     2.85691887     8.93375832     0.03612041    -0.00494680     0.01145890
O       5.72742875     4.75848257     4.08004067     0.03611681    -0.00497637     0.01169004
O       3.77861420    -0.95480539     8.87756130     0.01186102     0.00656094     0.02802581
O       5.68017690     0.94675746     4.02383144     0.01187747     0.00658948     0.02834642
O      -0.02071635     2.74410080     9.00310610    -0.02634790     0.02243057     0.03583168
O       1.88086676     4.64565076     4.14942223    -0.02636204     0.02220483     0.03617132
O       0.02395150    -0.85076858     8.94050882    -0.02180888    -0.02994925    -0.05192011
O       1.92554080     1.05068121     4.08673714    -0.02183587    -0.02964843    -0.05160592
O       1.91993121     0.99341437     8.05451709    -0.01094956     0.03666549    -0.03291039
O       3.82149600     2.89496341     3.20081325    -0.01096833     0.03669968    -0.03248204
O       1.88213270    -2.88870427     8.13518465    -0.04128139    -0.01867959    -0.01109123
O       3.78370092    -0.98715431     3.28142224    -0.04114049    -0.01882665    -0.01056724
O      -1.92079296     0.93099875     8.00987428     0.02571721    -0.01909919     0.05117371
O      -0.01921277     2.83251181     3.15616877     0.02578766    -0.01895032     0.05140100
O      -1.88443032    -2.83486213     8.08909756     0.04498635     0.01390402     0.05659746
O       0.01714634    -0.93333712     3.23537104     0.04480586     0.01394027     0.05707877
O       3.78299855     4.63919506     6.50592098    -0.02770622     0.01084132    -0.06271309
O       5.68458951     6.54078661     1.65223032    -0.02820321     0.01076418    -0.06307818
O       3.78661797     1.07388269     6.43680659    -0.05494655     0.01417064    -0.08679559
O       5.68815921     2.97547552     1.58313081    -0.05422690     0.01427117    -0.08686835
O       0.01751670     4.63167682     6.49302245     0.02869584     0.00479845     0.05349619
O       1.91906202     6.53326732     1.63932933     0.02938078     0.00469432     0.05332419
O       0.02410504     1.07118556     6.41596088     0.01005944    -0.00055716    -0.08853623
O       1.92570899     2.97273503     1.56228195     0.00939327    -0.00028308    -0.08852903
