# total energy = -19518.94314850 eV

CRYSTAL
PRIMVEC
        7.60600008     0.00000000     0.00000000
        0.00000000     7.60600008     0.00000000
       -1.89786986    -1.89786986     4.85670466
PRIMCOORD
23 1
Ti      3.82155501     6.68575201     1.20034599     0.37715912     0.76188191     0.12172173
Ti      3.77441902     2.92754201     1.16333602     0.31332760    -0.88098085     1.37956088
Ti     -0.03217800     6.58103799     1.16808999    -0.14086951    -0.22768721     0.10135267
Ti      0.00587699     2.69772398     1.22512302    -0.45946350     1.21949499     0.29281019
Ti      5.60441322     2.84421823     3.76045684    -0.57558048    -0.25845716    -1.80470400
Ti      5.70416224    -0.92088679     3.65667179    -0.73134080    -0.20890864    -0.80358239
Ti      1.94906522     2.90826122     3.67408781     1.13175735     0.36658571    -0.64001518
Ti      1.85616223    -0.92339477     3.55199280     0.86523901    -0.22172019     0.93469328
O       3.94361302     4.81921600     0.83110901    -0.13195652    -1.05335590    -0.72832360
O       3.72863402     1.01287500     0.83059301     0.02532152     0.39767447    -0.79772310
O      -0.12516000     4.64406801     0.76009999     0.40048443     1.51095818     1.60813255
O       0.18604898     0.92051198     0.74954100     0.05121074    -1.16663695     0.66422855
O       5.77814524     4.69527925     4.01432481     0.31912236     0.22522152     0.77233988
O       5.51283423     0.89692522     4.12159380     0.74820055    -0.26157128    -0.58952743
O       1.90258621     4.78324020     4.03443783    -0.57104762     0.33415972     0.44321953
O       1.90928422     1.04222422     3.85723182    -0.50926579    -1.04409710     1.24271463
O       3.82167323     2.89634923     3.17656181    -0.51004509     0.10176764    -0.14792616
O       3.86651422    -1.10649275     3.22849479    -0.49035198     0.46118383     0.27224856
O      -0.00351278    -0.99399877     3.12492882     0.22106070     0.24688719     0.40026512
O       5.68079398     6.79526402     1.65462000     1.25554727    -0.10702864    -0.77998686
O       5.78526997     2.76652898     1.79900902     0.87179610    -0.22966979    -0.70808259
O       1.99108100     6.49886502     1.67822199    -1.45843721     0.29141228    -0.76052514
O       1.92634902     3.03181400     1.67346701    -1.00186851    -0.25711350    -0.47289110
