# total energy = -4985.55914139 eV

CRYSTAL
PRIMVEC
        3.16262229     0.00000000     0.00000000
        2.12246031     4.47780148     0.00000000
       -0.00001387    -0.00006659     5.09228995
PRIMCOORD
6 1
Ti      2.64253426     2.23886747     2.54614486     0.00000000     0.00000000     0.00000000
Ti      0.00000000     0.00000000     0.00000000     0.00000000     0.00000000     0.00000000
O       1.99494462     0.87264464     0.99241228    -1.49209091     1.04185201     0.78494060
O       3.29012384     3.60509032     4.09987745     1.49209091    -1.04185201    -0.78494060
O       0.64758384     1.36619596     3.53855820     1.49158106    -1.04224719     0.78499511
O       1.47486247     3.11153885     1.55373153    -1.49158106     1.04224719    -0.78499511
