# total energy = -4864.61102789 eV

CRYSTAL
PRIMVEC
        5.04582708     0.00000000     0.00000000
       -0.00000654     1.91393414     0.00000000
       -2.52294379    -0.95705792     5.56877941
PRIMCOORD
6 1
Ti     -0.00021560     1.43550477     1.39219461    -0.06855078    -0.05903101   121.18195997
Ti      2.52309239    -0.47862879     4.17658436     0.06855078     0.05903101  -121.18195997
O       0.00005357     0.47846830     0.90710859     0.06712304     0.05941899  -113.43069942
O       2.52282308     0.47840763     4.66167044    -0.06712304    -0.05941899   113.43069942
O      -0.00002187    -0.47852102     3.69149829    -0.00046203     0.00016969     0.39195557
O       2.52289842     1.43539691     1.87728073     0.00046203    -0.00016969    -0.39195557
