# total energy = -19959.64572874 eV

CRYSTAL
PRIMVEC
        7.60600008     0.00000000     0.00000000
        0.00000000     7.60600008     0.00000000
       -1.89786986    -1.89786986     4.85670466
PRIMCOORD
24 1
Ti      3.85923502     6.45075101     1.20458401     1.17269858     1.16085325     0.72867790
Ti      3.86799401     2.68361802     1.15672702     0.04697793    -0.81437769     3.07827291
Ti      0.01705300     6.74165001     1.18091999    -1.03452179    -0.10564461    -1.43980134
Ti     -0.03754502     2.92073901     1.26863599    -0.71208657     0.02259846    -1.04078449
Ti      5.68496321     2.87788322     3.65853582    -3.63885691     1.07265075    -0.72446798
Ti      5.76289324    -0.75010378     3.70654680    -1.56237538    -0.78825398    -1.68360860
Ti      1.73157724     2.75391223     3.65892481     3.00999724     0.13586665    -0.20678131
Ti      1.86964821    -0.98295177     3.60186580     1.48680112    -0.07421132     0.55338799
O       3.98762702     4.51479901     0.84281399    -0.69955012     3.31685826    -0.42453968
O       3.94235501     0.82293598     0.68849702    -0.77666628    -1.07374681    -0.09924513
O      -0.01942398     4.80375302     0.68787899     0.61101647    -0.52891083     2.28286946
O      -0.06031599     1.11289500     0.70892802     1.12810535    -0.66150858     1.19178620
O       5.48305023     4.84690821     4.12645979     1.31570751     0.53976526    -0.42866039
O       5.41572624     1.06440421     4.01062279     1.42703040    -0.75007155     1.05786279
O       2.00311221     4.58820923     4.00945384    -1.02975111     0.71593577     0.55571947
O       1.93814422     0.82977723     4.16791279    -0.56774941     0.91864342    -2.41259220
O       3.86089224     2.90300422     3.19060782    -0.03437283    -0.29758550     0.23189456
O       3.88772524    -0.73661177     3.20278382    -1.72296397    -1.31777648    -1.01583012
O      -0.08793576     2.83951025     3.23139283     1.43896084     0.21951393    -0.10990056
O       0.01808024    -0.63690377     3.10563179    -0.04723093    -0.67141324     1.65161198
O       5.73024798     6.70176602     1.63763499    -0.14939143    -0.56902236    -0.22374057
O       5.69565799     2.59863601     1.61460499     1.70674982     0.93950407     0.08456541
O       1.88271201     6.80154599     1.62814600     1.11413577    -1.04436424    -0.59834812
O       2.00666299     2.81016102     1.78561798    -2.48266405    -0.34530263    -1.00834821
