# total energy = -19518.16670042 eV

CRYSTAL
PRIMVEC
        7.60600008     0.00000000     0.00000000
        0.00000000     7.60600008     0.00000000
       -1.89786986    -1.89786986     4.85670466
PRIMCOORD
23 1
Ti      3.81469602     6.56598703     1.20744601     0.78290814    -1.31557638     0.30901715
Ti      3.87173001     2.76007799     1.22491002     0.37797442     1.51589059    -0.05523580
Ti      0.05226102     6.82462399     1.27625699    -1.27025116    -1.52970976    -0.91498294
Ti      0.02189900     2.86533399     1.15341299    -1.21543213     2.62885420    -0.01579198
Ti      5.66446521     2.89208422     3.61166881    -0.92738388     0.17181583     1.88978826
Ti      5.63606220    -0.97633679     3.62614980     0.13517760     0.11565418    -0.65672658
Ti      1.95921024     2.79308320     3.55364881     0.73228696    -0.73134439     1.81840721
Ti      1.85903323    -1.10470180     3.70569281     0.28188197     0.95731385    -0.28990124
O       4.09041002     4.70006401     0.67076598    -0.89714616     1.03902380     1.13357692
O       3.94982498     0.90979000     0.89848598    -0.71569717    -0.21798618    -1.30910183
O      -0.26917903     4.75152502     0.85820802     1.26404811     0.98181262    -0.13490300
O      -0.20835597     1.07459998     0.66301401     0.56306692    -1.88140595     1.43123442
O       5.79492820     4.76225621     4.11879583     0.64714613     0.13736227    -0.11906140
O       5.60924821     1.02912725     4.09982080     0.40589121    -0.12307361    -1.60503206
O       1.75706125     4.63473322     3.99021883    -0.72949217     1.60386503     0.67921115
O       1.88180124     0.95588425     4.03322580    -0.24170718    -1.25920827    -0.10419657
O       3.80930524     3.07040923     3.15133080    -0.36065006    -0.63226278    -0.25913541
O       3.76353025    -1.27019278     3.30202381    -0.44506506     0.72549179    -1.10405422
O      -0.04902478    -0.84281976     3.20653282     1.59169960    -0.33554220     0.68293950
O       5.73794602     6.84313599     1.69792802    -1.32561089    -0.43338994    -0.38114202
O       5.71764700     2.95642201     1.73744899     0.90264266    -0.82477909    -0.67904402
O       1.93338999     6.69298501     1.52550397    -0.10780254    -0.08100829     1.01581727
O       1.79957498     2.97359403     1.70335500     0.55151495    -0.51179756    -1.33168332
