# total energy = -19072.22590562 eV

CRYSTAL
PRIMVEC
        5.17600016     0.00000000     0.00000000
        0.00000000     5.50899976     0.00000000
        0.00000000     0.00000000     9.26300011
PRIMCOORD
22 1
Ti      1.68926401     3.29254201     3.36514302    -1.28186149    -0.06547317     0.58392371
Ti      3.83441603     2.24857097     5.59824799     1.08499514    -0.27959420    -0.29464108
Ti      4.21003202     2.09254603     1.53027303    -0.10054405    -0.69663038     1.76776212
Ti      1.08698003     3.24226801     8.18716302    -0.18959965    -0.27280417    -0.26930542
Ti      1.63901202     0.40958102     1.34192699    -0.44008509     0.82172899     0.40474655
Ti      3.36193297     5.10263799     8.18990500    -1.16571727     0.14032829    -1.25597639
Ti      1.54271102     0.33200200     5.90222201    -1.23404384    -1.25940547    -2.01788761
Ti      4.20208600     5.03184302     3.69211598     1.89563933    -0.33252295    -0.78496631
O       3.27806499     3.77119099     4.59940101    -1.46546455    -2.31731506     1.72298711
O       0.51077998     2.11495398     0.57959101     2.13681866     0.15245850    -3.10931771
O       4.55700999     3.61477900     7.73644598    -0.80848549     0.42640039    -0.11337386
O       3.21710198     0.93232199     0.34083000     0.24110297    -0.30031525    -1.78576628
O       1.52121801     4.71703399     9.16650802    -0.16093698     0.00366742     0.36765966
O       3.21611501     0.91012502     4.39870001    -0.32472788     0.45712894     1.53797046
O       0.82700202     4.74530899     4.44176699    -0.63158530     0.49955242     0.73870418
O       4.95180199     3.29673400     2.84078398     0.91916818    -0.50211555    -0.99802240
O       0.44256898     1.79421801     5.32890598    -0.05432126     0.55687544     0.47407946
O       2.42276602     1.81295703     2.35159999    -0.92537817     1.26051310     0.99690525
O       2.11835400     4.23916799     6.84191999    -0.47191690    -0.95947255     0.52316595
O       4.91436498     0.50338298     2.26511200     1.26111577     0.35111769    -0.82668711
O       2.86515100     1.13166598     6.80029502     1.52674553     1.27251373     2.71259146
O       2.53086799     4.47757102     2.30135598     0.18908285     1.04336408    -0.37455176
