# total energy = -19896.74849934 eV

CRYSTAL
PRIMVEC
        8.66420976     0.00000000     0.00000000
        0.00002900     4.43990406     0.00000000
        0.00000000     0.00000000    13.09024415
PRIMCOORD
24 1
Ti      3.14037664     2.63108312     4.85638722     0.35432437    -0.43653414     2.80821982
Ti      5.52386231     1.80882114     8.23385706    -0.35432437     0.43653414    -2.80821982
Ti      7.47233321     1.80882272     1.68868263     0.34382784     0.43729416    -2.80970309
Ti      1.19190581     2.63108174    11.40156185    -0.34382784    -0.43729416     2.80970309
Ti      3.14036221     0.41113115     1.68873512     0.35432437    -0.43653414    -2.80821982
Ti      5.52387682     4.02877324    11.40150936    -0.35432437     0.43653414     2.80821982
Ti      1.19189131     0.41112945     8.23380457    -0.34382784    -0.43729416    -2.80970309
Ti      7.47234765     4.02877494     4.85643971     0.34382784     0.43729416     2.80970309
O       2.74228741     1.56336576     6.67985140     0.94969644     1.28532606    -2.37094340
O       5.92195161     2.87653850     6.41039288    -0.94969644    -1.28532606     2.37094340
O       1.58988878     1.56338363     0.13477139    -0.94920587     1.28504684    -2.37093620
O       7.07435031     2.87652063    12.95547250     0.94920587    -1.28504684     2.37093620
O       5.92193711     0.65658647     0.13472893    -0.94969644    -1.28532606    -2.37094340
O       2.74230185     3.78331779    12.95551502     0.94969644     1.28532606     2.37094340
O       7.07433587     0.65656860     6.67989386     0.94920587    -1.28504684    -2.37093620
O       1.58990302     3.78333573     6.41035042    -0.94920587     1.28504684     2.37093620
O       0.31480855     2.70060138     3.53600151    -2.29716403     0.72610089     0.10108887
O       8.34943041     1.73930295     9.55424277     2.29716403    -0.72610089    -0.10108887
O       4.64692427     1.73926150     3.00916223    -2.29897666    -0.72613380    -0.10074383
O       4.01731469     2.70064282    10.08108185     2.29897666     0.72613380     0.10074383
O       0.31479411     0.48064928     3.00912044    -2.29716403     0.72610089    -0.10108887
O       8.34944491     3.95925498    10.08112365     2.29716403    -0.72610089     0.10108887
O       4.01730025     0.48069073     9.55428451     2.29897666     0.72613380    -0.10074383
O       4.64693877     3.95921353     3.53595971    -2.29897666    -0.72613380     0.10074383
