# total energy = -4989.45838152 eV

CRYSTAL
PRIMVEC
        3.16558897     0.00000000     0.00000000
        0.00000000     4.05818458     0.00000000
        0.00000000    -0.00005959     4.55464046
PRIMCOORD
6 1
Ti      1.58279448     2.02906244     2.27732033     0.00000000     0.00000000     0.00000000
Ti      0.00000000     0.00000000     0.00000000     0.00000000     0.00000000     0.00000000
O       1.58279448     0.79086878     0.88763240     0.00000000    -0.03766976    -0.19316885
O       1.58279448     3.26725611     3.66700827     0.00000000     0.03766976     0.19316885
O       0.00000000     1.23816955     3.16495355     0.00000000     0.03701850    -0.19186093
O       0.00000000     2.81995533     1.38968712     0.00000000    -0.03701850     0.19186093
