# total energy = -19957.09872070 eV

CRYSTAL
PRIMVEC
        5.93400000     0.00000000     0.00000000
        0.00000000     9.29699974     0.00000000
        0.00000000     0.00000000     4.64899994
PRIMCOORD
24 1
Ti      4.35166102     7.07289401     2.20498100     2.55064558    -1.12974752    -0.36820422
Ti      4.35191798     2.19512402     2.43549199     1.84894190     2.83044316     0.26902337
Ti      1.53797102     6.93816897     2.57463200    -1.80843802     0.00151438    -0.58830899
Ti      1.53521501     2.32427100     2.21719299    -2.81466661     1.76510103    -0.48361106
Ti      2.90125100     4.51414801     0.05613200     2.40906671     2.36956580     0.07089665
Ti      2.98213500     0.18438298     4.53089298    -0.84132132    -3.51917433     0.19715561
Ti      0.10123002     4.59136000     0.01312402    -2.59778858     1.55575607     0.41093880
Ti      5.79255500     0.38742299     4.56391502     1.61923509    -3.59295782    -0.07444015
O       4.42634502     5.45393897     0.96100102    -0.03926873    -0.71000654    -0.50236135
O       4.38816901     1.01488799     0.83517299     1.34684872     0.55365385    -0.13300476
O       1.54211199     5.31404001     1.03064101    -0.06703845     0.57263708    -0.39560705
O       1.69186799     1.03112097     0.84335597    -2.60018870    -0.28983440    -1.13974114
O       4.41414002     8.37413801     3.75750900     1.72954009     2.55597291     0.92654211
O       4.63045599     3.49338103     3.75832499    -1.01856269    -0.39960100    -0.00562043
O       1.88711301     8.39563801     3.67500699    -2.90817226    -0.94991807     0.05468070
O       1.48667099     3.64520002     3.74496999     0.13713858    -0.26568582     0.13124612
O       3.04916302     5.90458902     3.32683799    -1.27782923     0.40481057    -0.35651701
O       2.85230798     1.27202500     3.02102101     1.57282435     0.03961891     1.01924429
O       5.74035198     6.24717001     3.40442802     2.46985069    -1.60063521     0.12487184
O       0.09031500     1.24943501     2.89682300    -1.25708068    -1.32850492     2.63389819
O       2.85350302     7.82427702     1.41880999     0.10841678    -0.15287682     0.23789681
O       2.96594498     3.23261999     1.65266998     1.83557782     0.88480126    -1.86490769
O       5.93263700     7.80585297     1.46425102     0.09505012     0.76196162    -0.30744440
O       0.05252698     3.17206502     1.37364899    -0.49278141    -0.35689368     0.14337428
