# total energy = -39034.29559586 eV

CRYSTAL
PRIMVEC
        5.93200024     0.00000000     0.00000000
        0.00000000     9.29399984     0.00000000
        0.00000000     0.00000000     9.29399984
PRIMCOORD
46 1
Ti      4.43780298     6.94879200     7.05830697    -0.53221649     0.24760093    -1.42102765
Ti      4.47415798     6.98168401     2.43536499    -0.16391714     0.32861667    -0.59899861
Ti      4.52835102     2.23190300     6.96303999    -0.44950536     0.89322779    -0.61148492
Ti      4.11970400     2.60417100     2.15274100     1.37583329    -0.66154380     0.61919978
Ti      1.43276899     6.94533001     6.97554000     1.51867612     0.30843968     0.01655225
Ti      1.49922598     6.88769901     2.31388801    -0.01687544     0.74414129    -0.28850128
Ti      1.51902801     2.32704098     6.97485202     0.75537933     0.89613803    -0.58334136
Ti      1.26493900     2.07478901     2.49726301     0.50171343     1.11560953     0.27032023
Ti      2.97587901     4.62178002     4.59719698    -0.25528956     0.42089386     1.88091718
Ti      3.03735602     4.84191601     9.14793401    -0.13675343    -0.13649169     0.79226516
Ti      2.97914499     0.02681500     4.69334098     0.87414660    -1.15524670    -0.44488226
Ti      3.01094299     9.24992398     0.04439898    -1.34577760    -1.45261983    -1.41408387
Ti      0.02064500     4.62737300     4.53869501     1.05264448    -0.07601881     2.26187074
Ti      0.07483598     4.66938502     9.25146701    -0.15925676    -0.12090643     0.71245835
Ti      0.08940799     9.12585202     4.80566398    -0.84542403    -0.18349816    -0.86464740
Ti      5.92284198     0.15319602     0.12577702     0.37809526    -1.89012611    -1.24469721
O       4.25405501     5.53783601     5.59927602     1.49638465    -0.34219030     0.14108651
O       4.49873398     5.69761197     1.06321399    -0.94946864    -2.01197716    -1.85941247
O       4.55898599     0.87761999     5.66050501    -0.39093355    -0.78703245    -1.54808159
O       4.35967302     1.05461200     0.69219200     0.48600913     0.74423154     0.94691990
O       1.42880498     5.52749101     5.53223001     0.06048728     0.09252787     0.39355196
O       1.51998503     5.59865599     0.82957398     0.37759826    -0.41873233     0.98961669
O       1.51983299     0.95801800     5.49072298    -0.45750792    -0.34112355    -0.63680078
O       1.41476501     1.10058501     0.81979600     0.77328193    -0.58202547     0.55541222
O       4.55226402     8.19869400     8.42612100    -1.08984475     2.05066071     0.66138054
O       4.46349601     8.40518399     3.70197201     1.18353939     0.77540309     0.91189375
O       4.46213799     3.81664800     8.45128300    -0.04004700    -0.64050523     0.04523703
O       4.50108501     3.83493298     3.75448100    -2.16403483    -2.09297928    -2.08801679
O       1.51408200     8.58469002     8.13072902     0.56640909    -0.83995349     1.69762163
O       1.54025500     8.34144502     3.74994097    -0.86541102     1.18363246     0.23903041
O       1.54149201     3.89093702     8.22650100    -0.12726194    -0.62053469     1.15186544
O       1.47933897     3.55876199     3.84145498    -0.24710136    -0.41796434    -1.27491257
O       2.92698700     6.20606199     7.95002398     0.54436085    -0.51195877     0.09205401
O       2.88749498     6.16798700     3.36424199     0.46898713    -0.69089578    -0.87703164
O       2.99544201     1.43381698     7.82604400    -0.17092649     0.06339777     0.29731297
O       3.05367601     1.26444401     3.01850498    -0.29631178     1.44389016     0.34486965
O       0.03341400     6.10284602     8.04243902     0.13265046     0.03761294    -1.07555250
O       0.03134603     5.84185098     3.12411902     0.20759403     1.91753382    -0.16575908
O       0.03580598     1.25928400     7.75693001    -0.22246118     1.51787600     0.38127597
O       3.07339199     7.73027900     5.91111102    -0.37983770     1.36369254     0.62858816
O       2.94709500     7.94348600     1.52888499    -0.03948393     0.45095161    -1.28731326
O       2.93781101     3.17958098     5.96914801     0.32727173    -0.40679778     0.70340729
O       0.15591398     7.73800001     5.94660098    -2.02033685     0.38290991     0.21380582
O       0.00678998     7.90327101     1.37482297     0.31522019     0.44305677     0.70793526
O       5.91660298     3.25441601     5.99907102    -0.22986236    -0.89987796     1.27080832
O       5.87337100     3.16911100     1.62485901     0.19956499    -0.14104563    -0.64271278
