# total energy = -19519.23351164 eV

CRYSTAL
PRIMVEC
        7.60600008     0.00000000     0.00000000
        0.00000000     7.60600008     0.00000000
       -1.89786986    -1.89786986     4.85670466
PRIMCOORD
23 1
Ti      3.80800802     6.69885999     1.21335099     0.77235736    -1.03646066    -0.45155067
Ti      3.72055502     2.78235799     1.12973501     0.13716660     1.70306748     1.24562204
Ti      0.06685901     6.63552700     1.23032298    -1.18990081    -0.03862775     0.01512606
Ti      0.03950398     2.84325698     1.13391302    -0.92714786    -0.17935380    -0.78773385
Ti      5.54423725     2.91412625     3.64078980     0.32881593    -0.82885352     0.30620153
Ti      5.67995021    -0.98581277     3.60920882     0.80192712     0.51355002    -0.00970952
Ti      2.00695124     2.88297422     3.70353980    -0.75627973    -0.27848709     1.03930970
Ti      1.96551020    -0.96022376     3.59003081    -1.41057379     0.12489910     0.39305368
O       3.72476500     4.72809898     0.86713900    -0.07216369     0.25620744    -0.21109870
O       3.96021998     1.00205999     0.83537402    -0.18149398    -1.02552550    -0.54659102
O       0.11346100     4.66558600     0.75047902     0.28367840     2.28895321     0.57410415
O      -0.04781598     0.96772702     0.77024702     0.08775667    -0.88477426    -0.14072913
O       5.57541124     4.74781321     4.02557183     0.54798302     0.32593733     0.56850866
O       5.74776221     1.01600524     4.02163179     0.15930792    -1.42163520    -0.33852082
O       1.87268621     4.72341920     4.08254782    -0.16468256     0.93383607    -0.12982045
O       1.75444923     0.97959821     4.05576383    -0.13233344    -0.72377172     0.14404457
O       3.76786024     2.81547724     3.39534380     0.02197446    -0.19728493    -1.07664728
O       3.75490524    -0.94925276     3.18080581     0.76471116     0.19034758     0.51092364
O      -0.00793279    -1.09718875     3.18674382     0.47851487     0.35268504     0.12579770
O       5.72282103     6.53119701     1.65274798    -0.30576727     0.37149858    -0.38100986
O       5.79430700     2.88836098     1.78535900     0.32523130     0.08855525    -0.72216324
O       1.92629102     6.82588899     1.60217001    -0.29214325    -0.27235217     0.14599938
O       1.80188002     2.82553103     1.76873897     0.72306133    -0.26241074    -0.27311631
