# total energy = -19072.21728532 eV

CRYSTAL
PRIMVEC
        5.93400000     0.00000000     0.00000000
        0.00000000     9.29699974     0.00000000
        0.00000000     0.00000000     4.64899994
PRIMCOORD
22 1
Ti      4.43390701     6.81356202     2.55821100    -0.22594066     1.14123881    -3.66812405
Ti      4.48936998     2.18805501     2.21569102    -0.01507438     1.47764362    -0.81705498
Ti      1.56750202     7.08460100     2.70261098    -0.62977678     0.61465021    -1.30865857
Ti      1.61560100     2.52728202     1.95169402    -0.99193788    -0.24393633     0.38018737
Ti      3.08021398     4.59407600     4.46568998    -1.88603959     0.36791986     1.85856375
Ti      3.05173102     0.01396800     4.62634401    -2.50404843     0.10864355     0.78246823
Ti      5.78082801     4.71460200     4.44179202     0.97959710    -2.28688115     1.39805920
Ti      5.81078902     9.04459902     0.32099998     1.07481999    -0.49397055     0.41942576
O       4.50491900     5.26969999     1.06629502    -0.89769303     1.58920228     0.71968367
O       4.43787701     1.06615600     0.59362998     0.80482295     0.40473678     1.13134058
O       1.39135098     0.69615802     0.98568000     0.03709023     1.67380421    -0.06450797
O       4.30315801     8.40629601     3.76154699     1.45520045     0.18371182    -0.84128764
O       4.31581402     3.83985401     3.49682899     1.85693624    -1.45415350    -1.67614340
O       1.24008201     8.51775502     3.60536102     0.77883989     1.64397760     1.56509561
O       1.34727898     3.85083899     3.50707100     0.98627297     0.10712274    -0.36664536
O       3.03853799     6.31140498     3.67273899    -1.56549979    -1.13310255     0.17065652
O       2.98698200     1.55755100     3.01158303    -0.74312494    -1.14189984     1.00269255
O       5.72463700     6.40153699     3.78347398     2.62255525    -0.43642435    -0.52765407
O       3.15312302     7.95247301     1.48290198    -1.07406229    -1.10767330     0.43108571
O       3.08874601     3.23160201     1.22634102    -0.21169700     0.05969667    -0.63233400
O       0.02037999     7.73252001     1.61222200    -0.24024063    -0.24666273    -1.10462166
O       0.01084099     3.19152102     1.11095001     0.38900085    -0.82764279     1.14777224
