# total energy = -19959.66585551 eV

CRYSTAL
PRIMVEC
        7.60600008     0.00000000     0.00000000
        0.00000000     7.60600008     0.00000000
       -1.89786986    -1.89786986     4.85670466
PRIMCOORD
24 1
Ti      3.68604801     6.76905901     1.32642098     1.96565846     0.48022286     0.33942740
Ti      3.80086201     3.02069001     1.35279602    -0.33366864    -0.55704848    -2.18067090
Ti      0.05580502     6.63803398     1.15969798    -1.17551574    -0.28907232     0.41756608
Ti     -0.00764799     2.82679899     1.19448201     0.48527276    -0.44577186    -1.15324150
Ti      5.76369124     2.71834924     3.55915083    -1.63444189     0.08239900     0.62465849
Ti      5.82760823    -1.04207076     3.58773582    -1.21900546    -0.72912913    -0.46321706
Ti      1.72992224     2.98012323     3.63602779     1.16755483    -1.81358151     0.52254811
Ti      1.86187020    -0.91510775     3.69196781     0.56292602     1.29794247     0.98631590
O       3.76131400     4.85618400     0.88060100     0.36103495     0.13085377    -0.28314541
O       3.65413603     1.04884899     0.83604301     0.24929297    -1.13293235    -0.36137922
O       0.17501601     4.72465499     0.85004298    -1.07041184    -0.64516278    -1.62577984
O       0.18982599     0.90740198     0.74470897    -0.30137505    -0.86958624    -0.00405000
O       5.92442221     4.57438320     3.76059781    -1.07434614     0.24792746     1.73876546
O       5.83349421     0.71992924     3.77140282    -0.25090351     3.73068210     2.20460042
O       1.79896124     4.85982220     4.04381882     0.24373758    -1.32655140     0.37994645
O       1.66219120     1.05914424     4.24667082     0.59434980    -0.26191015    -1.15823072
O       3.78777921     2.55974921     3.12334082    -0.08067919     0.90397501     1.71048358
O       3.85604424    -0.88395879     3.27009183    -1.88037417    -0.26965200    -0.16070378
O      -0.06899180     2.66655523     3.20602280     1.61470146     0.25532607    -0.48684011
O       0.01443225    -1.03639476     3.13206584     1.78450978     0.21485971    -0.35511190
O       5.71950599     6.73835800     1.68447300     0.63312539    -0.48318965    -1.91728031
O       5.77783001     2.79225102     1.51633503    -1.14972808     0.24633569     0.39342444
O       1.91953798     6.49205303     1.67781002    -0.65168259     0.82443173    -0.00834889
O       1.79149000     2.88711202     1.68093000     1.15996853     0.40863149     0.84026331
