# total energy = -19518.75443107 eV

CRYSTAL
PRIMVEC
        7.60600008     0.00000000     0.00000000
        0.00000000     7.60600008     0.00000000
       -1.89786986    -1.89786986     4.85670466
PRIMCOORD
23 1
Ti      3.76857198     6.71511801     1.24975500     0.91774122    -0.16337156     0.15212349
Ti      3.74677999     2.91520498     1.19437501     1.00104987     0.00385100     0.62409027
Ti     -0.00701202     6.58844700     1.23693902    -0.78881320     0.59588397    -0.74089373
Ti     -0.03076599     2.84813298     1.11580299    -0.20519931    -0.55184739    -0.14585694
Ti      5.67600720     2.78040221     3.58224481    -0.64454726    -0.49739012    -0.01798564
Ti      5.71762424    -1.07538877     3.61073783    -1.05258046     0.50952650     0.55311186
Ti      1.99423320     2.92161723     3.67240979     1.02335369    -0.23208457     0.05284750
Ti      1.87062121    -0.94355775     3.66868681     0.93025247     0.19093276     0.46823791
O       4.09851299     4.76983000     0.70288201    -1.10136613     0.19575847     1.80200691
O       3.86327301     0.97383299     0.80919197    -0.86052901     0.28201515     0.08746819
O      -0.18222399     4.70090498     0.69590798     0.73932202     1.04715466     1.25555267
O       0.02838798     0.92302599     0.73606502     0.28804208    -0.94318538     0.41361558
O       5.68472323     4.65188322     3.94261880     0.71526857     0.75384516     0.83829924
O       5.59977922     0.88602422     4.03482884     0.78933308     0.38668815    -0.41839397
O       1.89194922     4.77167921     4.12373882    -0.60329415     0.15177202    -0.38815265
O       2.00871123     0.97970622     4.11585482    -1.08228134    -0.33155262    -0.70259739
O       3.85674424     2.90992024     3.32530380    -1.16890004    -0.18716841    -1.55686242
O       3.76804820    -0.99865775     3.29770382    -0.29386717    -0.17142682    -0.85804969
O      -0.02818779    -1.06122179     3.33482381     0.72388845     0.29964290    -1.33187255
O       5.66045003     6.85005900     1.64004799     1.11203210    -0.77390157     0.30771103
O       5.72179998     2.75595702     1.64853800     0.88206560     0.10691242     0.06569762
O       1.88506801     6.66112198     1.61668201    -0.59099322    -0.26922211     0.30499748
O       1.88980102     3.07903101     1.71694702    -0.72997760    -0.40283211    -0.76509451
