# total energy = -19935.62246756 eV

CRYSTAL
PRIMVEC
        6.81517205     0.00000000     0.00000000
        0.00002879     5.36121170     0.00000000
        0.00000000     0.00000000    10.85080378
PRIMCOORD
24 1
Ti      2.47018916     3.17704913     4.02557081     0.43921375    -0.46066010     0.74472211
Ti      4.34501174     2.18416275     6.82523303    -0.43921375     0.46066010    -0.74472211
Ti      5.87765748     2.18416462     1.39978776     0.43936338     0.46084624    -0.74506355
Ti      0.93754342     3.17704751     9.45101621    -0.43936338    -0.46084624     0.74506355
Ti      2.47017488     0.49644340     1.39983126     0.43983210    -0.51045236    -0.74442926
Ti      4.34502602     4.86476866     9.45097270    -0.43983210     0.51045236     0.74442926
Ti      0.93752915     0.49644136     6.82518953    -0.43985806    -0.51067733    -0.74477533
Ti      5.87767176     4.86477071     4.02561432     0.43985806     0.51067733     0.74477533
O       2.15705516     1.88777381     5.53708212     0.87543087     1.14590588    -0.87205218
O       4.65814580     3.47343807     5.31372173    -0.87543087    -1.14590588     0.87205218
O       1.25059105     1.88779544     0.11171513    -0.87457006     1.14553718    -0.87255046
O       5.56460997     3.47341650    10.73908841     0.87457006    -1.14553718     0.87255046
O       4.65813153     0.79283216     0.11167992    -0.87573246    -1.14685950    -0.87169557
O       2.15706943     4.56837972    10.73912362     0.87573246     1.14685950     0.87169557
O       5.56459570     0.79281059     5.53711732     0.87460709    -1.14660933    -0.87219128
O       1.25060521     4.56840135     5.31368652    -0.87460709     1.14660933     0.87219128
O       0.24762849     3.26099286     2.93107281    -1.22538076     0.22918051     0.14768088
O       6.56757247     2.10021902     7.91973104     1.22538076    -0.22918051    -0.14768088
O       3.65522186     2.10016902     2.49436362    -1.22637912    -0.22909849    -0.14777781
O       3.15997910     3.26104292     8.35644004     1.22637912     0.22909849     0.14777781
O       0.24761421     0.58038701     2.49432896    -1.22562733     0.22890206    -0.14772844
O       6.56758675     4.78082493     8.35647470     1.22562733    -0.22890206     0.14772844
O       3.15996483     0.58043701     7.91976563     1.22670540     0.22870922    -0.14798093
O       3.65523613     4.78077487     2.93103815    -1.22670540    -0.22870922     0.14798093
