# total energy = -19960.71619894 eV

CRYSTAL
PRIMVEC
        5.93400000     0.00000000     0.00000000
        0.00000000     9.29699974     0.00000000
        0.00000000     0.00000000     4.64899994
PRIMCOORD
24 1
Ti      4.41485198     7.02130097     2.22600802     0.30363480     0.05193168     0.80035694
Ti      4.45206801     2.27983302     2.25313100     0.12542206     0.34479689     0.89694613
Ti      1.46110802     6.94813502     2.35750698    -0.29648353    -0.00102484     0.58300274
Ti      1.51411200     2.34602801     2.37997997    -0.05744618    -0.58221676    -0.12901903
Ti      2.95012200     4.67161301     4.61665102     1.83708320    -0.16248067    -0.22695959
Ti      2.93395902     9.28556200     0.07419600     0.23432220     0.08523699    -0.88143620
Ti      0.05405498     4.60475898     0.00488801    -1.94629573    -0.09299375    -0.41777228
Ti      0.01197899     0.00584101     4.63886398    -0.61317054    -0.16837801    -0.56630162
O       4.37571800     5.57270402     0.83723398     0.44463080     0.29678692     0.48588674
O       4.45240202     0.85777902     0.82626302     0.67346781     0.87108467     1.16253630
O       1.45847902     5.50833998     0.84976198     0.16263262     0.99024147     0.69332805
O       1.44498600     0.93664998     0.97994202     0.27415323    -0.51970190    -0.77738670
O       4.44072001     8.34189498     3.68726400     0.65295143     0.30230682     0.60967178
O       4.45086799     3.79115298     3.69451802    -0.19227154    -0.38311045     0.45188440
O       1.64471501     8.33404802     3.72933502    -1.67276882     0.28094532     0.28644054
O       1.42906100     3.66081900     3.78433601     0.51054877     0.36825024     0.05990518
O       2.99124399     6.08719200     3.21308499    -0.64173447    -0.33030460    -0.37445483
O       3.03641800     1.34459002     3.35227602    -0.42075939     1.40282423    -1.68334557
O       5.89965201     6.04256199     3.21234901     0.63103148     0.50546621    -0.59846176
O       5.87965302     1.49831299     3.25556602     0.52991150    -0.91678502     0.31767200
O       2.91520900     7.96966799     1.49240298     0.28251523    -0.85450902    -0.24601018
O       2.99144598     3.34931802     1.56280298    -0.40383458    -0.92260215    -0.56487055
O       0.01812803     7.98398600     1.39792098     0.08494671    -1.10300007     0.39383530
O       0.05936803     3.17368002     1.42445499    -0.50248682     0.53723606    -0.27544778
