# total energy = -19075.58631630 eV

CRYSTAL
PRIMVEC
        7.60600008     0.00000000     0.00000000
        0.00000000     7.60600008     0.00000000
       -1.89786986    -1.89786986     4.85670466
PRIMCOORD
22 1
Ti      3.71000899     6.64830499     1.28040701     1.52776703     1.12800071    -1.29814018
Ti      3.86002900     2.90127598     1.18567100     0.77723860    -1.25787618     0.90387705
Ti      0.08202798     6.56753000     1.06114300    -2.01083507    -0.03196242     0.20781206
Ti      0.13369700     2.71218502     1.08385502    -0.56315151     0.71205083     0.66089383
Ti      5.78069323     2.81841121     3.60452682    -0.56046547     0.22978986    -0.95951600
Ti      5.96109324    -0.98288880     3.59084182    -0.62046347    -0.32402648    -0.17716090
Ti      1.93511923     2.93626221     3.74006081     0.61024539    -0.09252015    -1.27582557
Ti      1.31721722    -0.82613776     3.82042082     0.76539044    -0.75986951     1.21014106
O       3.64475202     4.74480399     0.77307499    -0.33615155     1.31775899     0.32084937
O       3.95791599     0.93218600     0.74891699    -0.80617098     0.00651081     2.39984390
O       0.20320099     4.66704600     0.70506100    -0.04380082     0.10752100     0.01783909
O       7.28560300     0.89440798     0.68998199     0.97791122     0.54849518     0.42418333
O       5.63906020     4.70948120     4.00544479     0.54020903     0.57178784    -0.25543405
O       5.61161522     0.87517921     3.81688084     0.63874865    -0.05054482     0.84006148
O       2.00575223     4.89477023     4.19837281    -0.97379566    -1.27194886    -0.64350905
O       2.11741921     0.86915220     4.08982983    -1.00499780     1.22187841    -0.24299762
O       3.77373522     2.93510321     3.25345783     0.04593406    -0.20987512    -0.02833614
O       0.10308722     2.96031522     3.19550382    -0.49957504    -0.63093404    -0.48742143
O       5.75150100     6.39385699     1.70356497    -0.40546903     0.44425825     0.26777149
O       5.66385200     3.09542598     1.64927001     1.19284087    -0.70801882    -0.05946938
O       1.71048201     6.79053598     2.04666800     1.61955931    -0.48357506    -1.86696252
O       1.95430598     2.77313999     1.54313399    -0.87096820    -0.46690094     0.04150071
