# total energy = -4982.55929654 eV

CRYSTAL
PRIMVEC
        3.51567302     0.00000000     0.00000000
        0.00000000     5.50853255     0.00000000
        0.00000000    -0.00007149     5.50853255
PRIMCOORD
6 1
Ti      1.75783645     2.75423047     2.75426621     0.00000000     0.00000000     0.00000000
Ti      0.00000000     0.00000000     0.00000000     0.00000000     0.00000000     0.00000000
O       1.75783645     1.07351791     1.07353185    -0.00000000    -0.92893349    -0.92893349
O       1.75783645     4.43494302     4.43500058     0.00000000     0.92893349     0.92893349
O       0.00000000     1.68068357     3.82779917     0.00000000     0.92919394    -0.92919394
O       0.00000000     3.82777736     1.68073325     0.00000000    -0.92919394     0.92919394
