# total energy = -4986.50535809 eV

CRYSTAL
PRIMVEC
        3.86139049     0.00000000     0.00000000
        1.81711824     3.40711283     0.00000000
       -2.83929065    -1.70357818     5.09958194
PRIMCOORD
6 1
Ti      1.36274758     2.55546583     1.27489515     0.00055844    -0.00055844     0.00000000
Ti      1.47647037    -0.85193132     3.82468617    -0.00055844     0.00055844     0.00000000
O       0.45431957     0.85177387     0.83068012    -0.00008819    -0.00014038    -2.74523188
O       2.38489821     0.85176064     4.26890125     0.00008819     0.00014038     2.74523188
O      -0.45428288    -0.85175181     3.38047109    -0.00014038    -0.00008819    -2.74523188
O       3.29350059     2.55528622     1.71911023     0.00014038     0.00008819     2.74523188
