# total energy = -19519.96837934 eV

CRYSTAL
PRIMVEC
        5.17575250     0.00001323     0.00000000
        0.00001429     5.50856584     0.00000000
        0.00000000     0.00000000     9.26345890
PRIMCOORD
23 1
Ti      1.84909587     3.37123442     3.38391385    -0.05605238    -0.08499582     0.03928261
Ti      3.35436931     2.18453989     5.77398105    -0.04617780    -0.02768976    -0.05281048
Ti      4.55516696     1.95121438     1.40583065     0.01711070     0.01008773     0.05178358
Ti      0.87250162     3.28576046     7.93794650     0.02932370     0.03543213     0.05978331
Ti      1.97639780     0.54292928     1.21237478    -0.03655262     0.05491030    -0.02627308
Ti      3.18940090     5.15089257     7.94130276    -0.08490249     0.02028524    -0.04637886
Ti      0.67595034     0.68763263     5.67504839    -0.05022446     0.12432471    -0.00115854
Ti      4.47830291     4.85769910     3.52477116     0.06223409    -0.01375566     0.02279130
O       1.58083997     1.91936196     4.66136299    -0.01738426     0.09818507     0.01703974
O       3.53199369     3.55256639     4.51995595    -0.05635809    -0.02577635     0.04210260
O       0.78944394     2.08184741     0.10973168    -0.14359154     0.02642169     0.02652351
O       3.51815903     0.89944041     0.07386784     0.16485637     0.13553910     0.03188169
O       1.72562862     4.68460219     9.16427812     0.00380163    -0.08920214    -0.10641594
O       4.12163801     0.77378494     4.73432590    -0.01284884    -0.00281562    -0.05063687
O       0.94507937     4.64422897     4.56676389     0.14735589    -0.09173468     0.09985474
O       0.16295397     3.36630536     2.43595531     0.02953042    -0.08048404    -0.05354221
O       4.96415870     2.11322056     6.81300251     0.01269945     0.05751380     0.01666101
O       2.78040947     2.17291836     2.12299191     0.00809126    -0.13465721    -0.17427329
O       2.53246021     3.39731320     7.15312082    -0.09824934     0.00550396     0.06514021
O       0.22606881     0.54476592     2.19441354     0.05265955     0.11513970    -0.11748737
O       4.93118497     4.75675565     7.38364830     0.00472929    -0.04214040    -0.01932956
O       2.32847781     0.70934671     6.76328575     0.01877163    -0.06490778     0.03953227
O       2.79350561     4.88569441     2.44154932     0.05117783    -0.02518396     0.13593016
