# total energy = -19517.10166897 eV

CRYSTAL
PRIMVEC
        5.17600016     0.00000000     0.00000000
        0.00000000     5.50899976     0.00000000
        0.00000000     0.00000000     9.26300011
PRIMCOORD
23 1
Ti      1.85619202     3.24279300     3.41283998    -1.71818301     0.58198690     1.34329366
Ti      3.41032798     2.24102798     5.77595100    -0.81778054     0.63010666    -0.38953410
Ti      4.33482699     1.94354501     1.55336299     2.19606821     0.98641926    -1.28145038
Ti      1.02961203     3.35056598     7.88266803    -1.01360226     0.00079293     0.69661726
Ti      1.82691699     0.40339901     1.22638600     1.82350649     0.96641993    -0.42027242
Ti      3.29342500     5.27912601     7.86126000     0.58515244    -0.27646620     1.28131822
Ti      0.64770200     0.57036798     5.77817799     0.10477198    -0.83433048    -1.76381985
Ti      4.31494400     4.86740600     3.43235101     1.63807769    -0.01127841     1.03155242
O       1.70012998     1.97951800     4.78764602    -0.29788324     0.02959418     0.28137418
O       3.41524203     3.79072302     4.59903799     0.14802258    -1.15710150     0.29791743
O       0.59432998     2.53142600     0.25888103    -0.03697993    -0.52731674    -0.95723055
O       3.51944899     0.99906903     0.12712298    -0.77381595    -0.55129409    -0.56217474
O       1.55026502     4.82169599     9.13455101     0.43942046    -0.25506253    -1.63922080
O       4.14538899     0.85732102     4.73465702     1.16774664    -0.48982824    -0.78903200
O       1.01324600     4.68837100     4.38788399    -1.23872531     1.09210733     0.60143242
O       5.15795903     3.14443001     2.80190199     0.32113142     0.89008719    -0.60396084
O       5.13351098     1.93147500     6.83070900    -0.79329772     1.51537534     0.67829429
O       2.70902800     1.87502899     2.40156400    -0.27275224     0.13050025    -0.54396644
O       2.90443802     3.62406299     7.12825902    -1.77582099    -2.24487394     1.12744818
O       0.27285998     0.63218298     2.16266497    -1.41697276    -1.24613935     0.64003369
O       5.05300000     4.78418600     7.11664601     0.75772649    -0.20990545     0.38454642
O       2.37979598     0.57845000     6.61714000     0.50522839     1.29525926     0.43606980
O       2.77492702     4.66894998     2.24237198     0.46896116    -0.31505204     0.15076415
