# total energy = -4982.17722010 eV

CRYSTAL
PRIMVEC
        4.54476211     0.00000000     0.00000000
       -0.00001012     4.54476211     0.00000000
       -2.27241670    -2.27242176     5.80012723
PRIMCOORD
6 1
Ti     -0.00020014     3.40874372     1.45003165    -0.00128941     0.00128941     0.00000000
Ti      2.27253531    -1.13640349     4.35009520     0.00128941    -0.00128941     0.00000000
O       0.00004540     1.13618281     0.94479327    -0.00041420    -0.00262458    -1.31415842
O       2.27228965     1.13615729     4.85533364     0.00041420     0.00262458     1.31415842
O      -0.00002567    -1.13616308     3.84485682    -0.00262458    -0.00041420    -1.31415842
O       2.27236065     3.40850312     1.95527009     0.00262458     0.00041420     1.31415842
