# total energy = -19514.89721445 eV

CRYSTAL
PRIMVEC
        5.17600016     0.00000000     0.00000000
        0.00000000     5.50899976     0.00000000
        0.00000000     0.00000000     9.26300011
PRIMCOORD
23 1
Ti      2.01177299     3.13670101     3.35698099    -0.61689658     1.59497184     3.39585261
Ti      3.20533403     2.26092901     5.97042899     2.58332946     0.46566244    -3.29505736
Ti      4.39186700     2.15409500     1.60975201     1.47400165    -0.15238908    -3.53460224
Ti      0.91354298     3.45051402     7.65011902    -3.62142971    -0.90210376     3.25474039
Ti      1.94530399     0.27193302     1.46577600     1.75468651    -1.26092062    -2.34533752
Ti      3.14299298     5.27034802     7.76595899     1.67043272    -1.97126398     4.78132703
Ti      0.70286899     0.60480901     5.88419802    -2.15468398    -1.07691133    -3.44354453
Ti      4.55363300     4.83181798     3.45034600    -0.01564234     1.49342120     3.56523643
O       1.71872400     1.90305998     4.86390798     0.11253440    -0.45722459    -1.42860289
O       3.61598700     3.34756899     4.47575700    -0.47462685     1.16688223    -0.35795451
O       5.09584600     2.81281802     9.13498499    -0.33662669    -0.99931206     1.32692884
O       3.37150002     0.75010103     0.14528202    -0.33897822     0.73956961     1.01457080
O       1.87683401     4.40099002     9.03674699     0.30270303     0.91843181     0.03740699
O       4.25536002     0.69604001     4.79524501    -0.43240572    -0.88078931     0.09986760
O       0.99650400     4.64117802     4.35480798     1.02053602     1.05394777     1.90027374
O       0.18729700     3.32973598     2.69823098     0.87668068    -2.15108469    -2.52189781
O       5.13041302     2.25597797     6.34757801    -0.87790479     0.62830226     2.42898736
O       2.77902598     1.75398101     2.48410697    -0.41647516    -1.81295596    -1.61237616
O       2.46549798     3.80902499     6.73365700     1.08050265    -0.15104105    -0.75690528
O       0.24221898     0.63045098     2.25210498    -0.05731660     0.82168502    -1.51296185
O       4.91400800     4.81637098     7.22423299     0.55486895     1.28049804    -0.60518134
O       2.19985799     1.01062001     7.00410700    -0.90224800     1.61272711     0.69458609
O       3.01563398     4.50089498     2.35347502    -1.18504143     0.03989685    -1.08535586
