# total energy = -19000.87368225 eV

CRYSTAL
PRIMVEC
        7.60600008     0.00000000     0.00000000
        0.00000000     7.60600008     0.00000000
       -1.89786986    -1.89786986     4.85670466
PRIMCOORD
22 1
Ti      4.73304499     5.15246500     0.43022603    -1.86080215    -0.29437702    -0.59153932
Ti      5.56307025     3.46600923     2.87887082    -9.89579999    10.04945868   -15.46929293
Ti      1.20447902     6.26936900     0.20751098     5.76523844    13.35674292     6.51075630
Ti      0.35124600     3.15797002     1.01656500    15.08542400   -12.78002962    12.01987137
Ti     -1.79369476     2.85270920     4.61928881   -26.88539655    43.72366693    30.66162730
Ti      5.69909722     1.53915124     3.92067684   -12.98381250   -36.74344605   -34.84702511
Ti     -0.42934976     2.39069724     4.02074780    47.10154649    -2.55596880   -15.78788693
Ti     -0.02808180    -0.73819475     3.99219080     4.17818354    -0.88859415    -0.55732590
O       4.07357202     4.34768700     2.07802302     1.38289046     1.93878657    -2.66927041
O       3.48491498     7.39536801     0.15037900    -0.75532894    -0.64956400    -0.75032480
O       1.49982200     4.59022698     1.01549098     0.65972218     1.53800620     5.00012825
O       1.32297900     0.58854702     0.63215599    -0.60861737    -0.07564883    -0.89409091
O      -0.77965177     4.69187124     3.01288279     2.04055241     2.06684015     2.90832447
O       5.02071902     1.83896000     2.18138399     2.36561582    -0.29582944    -1.47831056
O       1.08997422     3.26187921     4.28442079     3.79934498     2.32737450     0.94377185
O       2.26775503     2.88177399     0.03299002    -0.08621915    -5.64704452    -2.20349408
O       3.75923121     2.04312420     3.84629579    -2.69359100     3.60082411     1.25649061
O       0.31064599     2.08789699     2.18736099    -1.22536251    -4.51784208     5.80721865
O       6.78617800     6.84197000     0.29107299     0.07325461    -3.15635246    -0.77441399
O       6.63114901     3.87406902     0.97097802   -17.17605818     7.75265281     3.72419135
O       0.87210998     6.39920602     2.11478401    -0.69606088     1.37426106     1.84083804
O       5.10012720     0.36381222     4.47746280    -7.58472371   -20.12391724     5.34975650
