# total energy = -19519.04858640 eV

CRYSTAL
PRIMVEC
        7.60600008     0.00000000     0.00000000
        0.00000000     7.60600008     0.00000000
       -1.89786986    -1.89786986     4.85670466
PRIMCOORD
23 1
Ti      3.79607200     6.62428802     1.23205302     1.04536954    -0.66968752    -0.82785336
Ti      3.87675798     2.79213602     1.27510201     0.15707364     0.56654665    -0.12304070
Ti      0.08952901     6.83263002     1.22840497    -1.46475056    -1.43565440     0.49904257
Ti     -0.02147401     2.88235799     1.10559802    -0.23412243     0.79287863    -0.79948225
Ti      5.56013024     2.91511724     3.72680079     0.38376377    -0.63477270    -0.01704771
Ti      5.68297123    -1.01973678     3.59174582     0.08637007     0.94622082    -0.51613012
Ti      2.04955223     2.73839924     3.61473179    -1.52978227     0.74849006     0.99441180
Ti      1.90393720    -0.99395077     3.63960879    -0.34253535    -0.69588013     0.32826340
O       4.05811899     4.71286301     0.84860102    -1.00030348    -0.48864554    -0.55510266
O       3.93813101     0.91918099     0.76548998    -0.25144524     0.12800190    -0.00697001
O      -0.10143698     4.87623802     0.78800499     0.71306513    -0.49358977     0.46394314
O      -0.21133799     0.98568301     0.75813701     0.70406652    -0.24282741    -0.17916379
O       5.55363925     4.75392521     4.00229179     1.07928343     0.98720165     0.24205325
O       5.59205323     1.00462121     4.07522184     0.42309832    -0.37987189    -0.46579588
O       1.69565923     4.63850922     3.96865083     0.04176502     0.15876234     0.54637505
O       1.84538024     0.88626320     3.98320479     0.16996772     0.83926263     0.60943524
O       3.78863822     2.80801224     3.24318480     0.40882098     0.04117957    -0.66537141
O       3.76819325    -1.16935075     3.14813679    -0.26039474     0.52752552     0.59605367
O       0.01995321    -0.82933976     3.20731183    -0.44478301    -0.48789195     0.12513487
O       5.69144600     6.73298499     1.70544302     0.12629906    -0.00573279    -0.42433734
O       5.83874101     2.85701802     1.73498699    -0.51871948    -0.01973142     0.24363166
O       1.92105402     6.80731598     1.63063498    -0.24552862    -0.15263925    -0.54280687
O       1.74599102     2.80554802     1.63322499     0.95342171    -0.02914475     0.47475746
