# total energy = -19073.89919736 eV

CRYSTAL
PRIMVEC
        5.93400000     0.00000000     0.00000000
        0.00000000     9.29699974     0.00000000
        0.00000000     0.00000000     4.64899994
PRIMCOORD
22 1
Ti      4.34493798     6.79818402     2.33184199     0.71079973     0.30290820    -0.97147986
Ti      4.36223599     2.47941100     2.02925002     2.20349125    -0.62067328     2.20088492
Ti      1.54044000     7.21488200     2.63328601     0.02734498     0.17824282     0.17114632
Ti      1.57393401     2.30308999     2.12601601    -1.04674097     0.10918965     1.35074832
Ti      3.04997700     4.51799402     4.41239098    -1.03992317     0.51403545     1.14107015
Ti      3.03722399     0.19318002     4.59174302    -0.02324458    -0.29235356    -0.28510896
Ti      5.87179299     4.62030298     4.40870902     0.44979461    -0.50065491     0.67704628
Ti      5.86148801     9.11318500     0.40925801    -0.01223383    -0.20777838    -0.09286288
O       4.24351301     5.37799400     0.94713298     0.64240579     0.55282029     1.17680001
O       4.37131900     0.74756600     1.25858797     1.12113406     0.07240203    -0.96077481
O       1.56712001     0.64764802     1.27189202    -0.98149406     0.89014581    -0.26940492
O       4.46621498     8.38809400     3.93334502     0.15284468     1.14986975    -0.21993662
O       4.41250799     4.03288602     3.41522901     1.07470095    -1.93036980    -1.63749919
O       1.45712898     8.47154298     3.91555700    -0.04023804     0.60919818    -0.29578265
O       1.56701401     3.87908901     3.46825299    -1.30934737     0.12494306     0.24559598
O       3.00324298     6.25365698     3.44561902    -1.24352273    -1.47461614     0.51095552
O       3.16464299     1.66421699     3.36758199    -0.41860686    -0.81727275     0.54198515
O       5.84810400     6.20954101     3.52903699     1.21025599    -0.07895758    -0.58132715
O       2.99682200     7.84622200     1.55457703    -0.40082536    -0.56150677     0.03120523
O       2.96385801     2.88360997     1.09457102    -1.47282614     2.71513994    -2.64131685
O       0.06180801     7.66755298     1.49035999    -0.29197587    -0.35027180    -0.05159383
O       0.00263901     3.17939302     1.24372698     0.68820718    -0.38444074    -0.04034962
