# total energy = -4987.00526042 eV

CRYSTAL
PRIMVEC
        4.60180945     0.00000000     0.00000000
       -0.00000857     3.76511661     0.00000000
       -2.30093543    -1.88260133     5.39295860
PRIMCOORD
6 1
Ti     -0.00019973     2.82397779     1.34823980    -0.00150230    -0.00108886     2.64381802
Ti      2.30106518    -0.94146274     4.04471898     0.00150230     0.00108886    -2.64381802
O       0.00004747     0.94127123     0.87846895    -0.00024554    -0.00029336    -0.59937888
O       2.30081786     0.94124370     4.51448988     0.00024554     0.00029336     0.59937888
O      -0.00002226    -0.94126266     3.57494813    -0.00255131    -0.00016686    -1.84910928
O       2.30088748     2.82377760     1.81801064     0.00255131     0.00016686     1.84910928
