# total energy = -19517.60582348 eV

CRYSTAL
PRIMVEC
        5.93400000     0.00000000     0.00000000
        0.00000000     9.29699974     0.00000000
        0.00000000     0.00000000     4.64899994
PRIMCOORD
23 1
Ti      4.56532400     7.08717502     2.25251102     1.13401504     0.04446339     0.37957184
Ti      4.32588299     2.28723198     2.30307999     1.99063545    -0.66305124     0.13005339
Ti      1.56985898     7.02010001     2.27861501    -0.78317734    -0.06911951     0.36183817
Ti      1.38594300     2.29538199     2.34743298    -1.51728927    -0.13833311     0.10250298
Ti      2.96070099     4.53486700     0.14980198     0.34244819     0.01687184    -0.02457744
Ti      2.94426898     9.28643001     4.56754798     0.18733527    -0.06011576     0.22714959
Ti      5.91118500     4.64680502     4.64163602     0.14530595    -0.13674751    -0.43483927
Ti      0.00950900     0.03322498     0.02719198    -0.27270776     0.47184209    -0.24544737
O       4.51950498     5.45544602     1.00631098    -0.96256302     1.23283902     0.06614962
O       4.37067499     0.94796701     0.93638200     0.20690678    -0.50453959    -0.45482780
O       1.59250300     5.59743697     1.00960098     0.24478685    -0.77497320    -1.05474276
O       1.41207102     1.00849097     0.75067698     1.24448972    -0.40477329     0.81246659
O       4.51676199     8.45486702     3.75816402    -0.84717238    -1.18563921    -0.53588700
O       4.53918402     3.66232801     3.89286498    -1.20839219     0.47968061    -1.34249636
O       1.45974000     8.31001199     3.68186502     0.48171230     0.88715665     1.38932311
O       1.43790900     3.76152800     3.65621299     1.07741424     0.60060786     0.55260844
O       2.90673200     1.34465098     3.14502798     0.00662625     0.01389605     0.46157130
O       0.01172202     6.13295398     3.19578698    -0.08810942    -0.82459731     0.92691389
O       5.80318897     1.42583302     3.29895501     0.88336915     0.11549760    -0.86362950
O       3.06863198     8.03601200     1.53162603    -0.44943311    -0.94461131    -0.49210341
O       2.94215301     3.19426401     1.36007401    -0.61659859    -0.00918656     0.63885998
O       0.16576800     7.89652400     1.44741498    -1.11675470     0.67048636    -0.92166986
O       0.00101798     3.07334600     1.34918899    -0.08284715     1.18234614     0.32121215
