# total energy = -4982.82828962 eV

CRYSTAL
PRIMVEC
        4.15493932     0.00000000     0.00000000
       -0.00000713     3.07104228     0.00000000
       -2.07749509    -1.53556131     4.71711522
PRIMCOORD
6 1
Ti     -0.00017943     2.30339480     1.17927853    -0.00473109    -0.01164350    11.86556784
Ti      2.07761634    -0.76791383     3.53783599     0.00473109     0.01164350   -11.86556784
O       0.00004334     0.76775330     0.76837939     0.00406312     0.00646118    -4.18516512
O       2.07739342     0.76772762     3.94873512    -0.00406312    -0.00646118     4.18516512
O      -0.00001860    -0.76775035     3.12693685    -0.00127321    -0.00039749     0.39440429
O       2.07745530     2.30323117     1.59017771     0.00127321     0.00039749    -0.39440429
