# total energy = -19897.63769361 eV

CRYSTAL
PRIMVEC
        6.83534387     0.00000000     0.00000000
        2.79806007     6.71525375     0.00000000
        0.00000000     0.00000000    12.49602034
PRIMCOORD
24 1
Ti      4.13561126     3.97945328     4.63593442    -0.35300025    -1.90115383     0.41629801
Ti      5.49779279     2.73580066     7.86008606     0.35300025     1.90115383    -0.41629801
Ti      7.03497585     2.73580294     1.61202586     0.10746547    -1.10531406     0.11385158
Ti      2.59842826     3.97945127    10.88399468    -0.10746547     1.10531406    -0.11385158
Ti      2.73658135     0.62182638     1.61207596    -0.35300025    -1.90115383    -0.41629801
Ti      6.89682274     6.09342776    10.88394459     0.35300025     1.90115383     0.41629801
Ti      1.19939819     0.62182391     7.86003590    -0.10746547     1.10531406     0.11385158
Ti      8.43400590     6.09343024     4.63598451     0.10746547    -1.10531406    -0.11385158
O       3.14867399     2.36455507     6.37662355     1.75539254     1.95989070    -0.73209413
O       6.48472999     4.35069888     6.11939693    -1.75539254    -1.95989070     0.73209413
O       2.23953826     2.36458221     0.12865354    -0.27863904    -0.69716285     1.52573920
O       7.39386589     4.35067185    12.36736653     0.27863904     0.69716285    -1.52573920
O       5.08570006     0.99307184     0.12861297    -1.75539254    -1.95989070    -0.73209413
O       4.54770399     5.72218210    12.36740710     1.75539254     1.95989070     0.73209413
O       5.99483588     0.99304476     6.37666405     0.27863904     0.69716285     1.52573920
O       3.63856805     5.72220927     6.11935636    -0.27863904    -0.69716285    -1.52573920
O       1.95028263     4.08459820     3.37548686     0.60491652     2.64160867     2.52346027
O       7.68312135     2.63065576     9.12053361    -0.60491652    -2.64160867    -2.52346027
O       4.76212463     2.63059326     2.87256312     0.49742226     2.08879506     1.63820444
O       4.87127936     4.08466069     9.62345715    -0.49742226    -2.08879506    -1.63820444
O       0.55125269     0.72697109     2.87252317     0.60491652     2.64160867    -2.52346027
O       9.08215136     5.98828285     9.62349703    -0.60491652    -2.64160867     2.52346027
O       3.47224943     0.72703365     9.12057343    -0.49742226    -2.08879506     1.63820444
O       6.16115456     5.98822030     3.37544698     0.49742226     2.08879506    -1.63820444
