# total energy = -4980.91396070 eV

CRYSTAL
PRIMVEC
        4.34489697     0.00000000     0.00000000
        0.00000000     2.58226998     0.00000000
        0.00000000    -0.00010308     5.88719285
PRIMCOORD
6 1
Ti      2.17244849     1.29108329     2.94359616     0.00000000     0.00000000     0.00000000
Ti      0.00000000     0.00000000     0.00000000     0.00000000     0.00000000     0.00000000
O       2.17244849     0.50322624     1.14732709    -0.00000000    -0.36014895     1.86329149
O       2.17244849     2.07894034     4.73986523    -0.00000000     0.36014895    -1.86329149
O       0.00000000     0.78781628     4.09092454     0.00000000     0.35950000     1.85903709
O       0.00000000     1.79435030     1.79626778     0.00000000    -0.35950000    -1.85903709
