# total energy = -19960.99536623 eV

CRYSTAL
PRIMVEC
        5.93400000     0.00000000     0.00000000
        0.00000000     9.29699974     0.00000000
        0.00000000     0.00000000     4.64899994
PRIMCOORD
24 1
Ti      4.43852901     7.02665000     2.29944200     1.51122069     0.20244128    -0.50398346
Ti      4.48050298     2.40323700     2.37640602    -1.10004561    -1.05328108    -1.35140523
Ti      1.50992701     6.86652203     2.27559399    -1.33067365     0.83798942     0.01367930
Ti      1.49877999     2.30948801     2.43556602     1.15969600    -0.90581386    -1.45281215
Ti      2.95324002     4.65173902     4.62030901     0.19697717     0.53109884     0.73870032
Ti      2.95989098     9.27332002     0.02144300    -0.61855674     0.41845028     0.64272975
Ti      5.92593598     4.59282498     4.62694400    -0.28274046     1.13502882     0.45121643
Ti      5.90921699     0.06473600     4.55397998     0.51185798    -0.71434220     1.83735831
O       4.51846298     5.65204600     0.87758300    -0.36773294    -1.50236453    -0.75733723
O       4.50900901     0.84096002     1.00608602    -0.56516957     0.51043641    -0.17062053
O       1.47937501     5.59887798     0.80202898     0.04684912    -0.53069132     0.23599188
O       1.43907599     0.83833101     1.01385900     0.33126260     0.44877414    -0.20252896
O       4.43131600     8.43150802     3.74957801    -0.05194145    -0.42872724    -0.40999829
O       4.42652700     3.76568299     3.72688102     0.35557984     0.14008018     0.22857296
O       1.47849499     8.40708099     3.81535199     0.34285905    -0.22434915    -0.79479102
O       1.51927000     3.74928601     3.68918201    -0.54369133     0.30404155     0.75650496
O       2.96244902     6.00812302     3.26533003     0.13405968     0.47428643    -0.69236106
O       2.99153298     1.48179198     3.31014398    -0.33323849    -0.14231190     0.00647430
O       0.07678198     6.03098602     3.10716498    -0.54748937    -0.68537948     1.16934818
O       5.90482800     1.46984400     3.28850503    -0.13863393     0.38924717    -0.12406117
O       2.99140301     7.84824002     1.39548401    -0.07345207    -0.06741332     0.33825960
O       2.85661400     3.21069200     1.42449102     0.82032285     0.26525361    -0.18507682
O       5.91943699     7.81081200     1.39272599     0.12716861     0.26293679     0.44094204
O       5.87031500     3.23230402     1.40682100     0.41551202     0.33460863    -0.21480161
