# total energy = -19954.13844720 eV

CRYSTAL
PRIMVEC
        6.07115763     0.00000000     0.00000000
        0.00002565     4.77592658     0.00000000
        0.00000000     0.00000000     9.66621822
PRIMCOORD
24 1
Ti      2.20051785     2.83020971     3.58609802     0.09932509     0.60521657    -1.01934637
Ti      3.87066548     1.94571704     6.08012025    -0.09932509    -0.60521657     1.01934637
Ti      5.23599182     1.94571870     1.24697250     0.10167945    -0.60525411     1.01959191
Ti      0.83519152     2.83020826     8.41924588    -0.10167945     0.60525411    -1.01959191
Ti      2.20050514     0.44224652     1.24701125     0.09994190     0.60525154     1.01767952
Ti      3.87067820     4.33368038     8.41920712    -0.09994190    -0.60525154    -1.01767952
Ti      0.83517880     0.44224470     6.08008150    -0.10227801     0.60555261     1.01955745
Ti      5.23600453     4.33368220     3.58613677     0.10227801    -0.60555261    -1.01955745
O       1.92156879     1.68168497     4.93259717     0.90955045    -0.21057651     0.56206136
O       4.14961460     3.09424177     4.73362110    -0.90955045     0.21057651    -0.56206136
O       1.11406365     1.68170423     0.09951915    -0.90896809    -0.21055260     0.56149777
O       4.95711980     3.09422256     9.56669885     0.90896809     0.21055260    -0.56149777
O       4.14960189     0.70627843     0.09948779    -0.90902389     0.21017568     0.56116301
O       1.92158151     4.06964831     9.56673021     0.90902389    -0.21017568    -0.56116301
O       4.95710708     0.70625922     4.93262853     0.90782730     0.21111464     0.56151525
O       1.11407625     4.06966758     4.73358974    -0.90782730    -0.21111464    -0.56151525
O       0.22059481     2.90498927     2.61108669    -0.10080708    -0.12742546     0.49836611
O       5.85058858     1.87093747     7.05513158     0.10080708     0.12742546    -0.49836611
O       3.25618017     1.87089293     2.22205318    -0.10184529     0.12738330    -0.49988640
O       2.81500322     2.90503387     7.44416493     0.10184529    -0.12738330     0.49988640
O       0.22058209     0.51702598     2.22202231    -0.10130433    -0.12725423    -0.49989103
O       5.85060130     4.25890081     7.44419580     0.10130433     0.12725423     0.49989103
O       2.81499050     0.51707053     7.05516240     0.10155013    -0.12720049    -0.49880525
O       3.25619289     4.25885621     2.61105582    -0.10155013     0.12720049     0.49880525
