# total energy = -19959.88164365 eV

CRYSTAL
PRIMVEC
        7.60600008     0.00000000     0.00000000
        0.00000000     7.60600008     0.00000000
       -1.89786986    -1.89786986     4.85670466
PRIMCOORD
24 1
Ti      3.92940302     6.75844101     1.16493799    -1.56889493     0.89279765     0.32714472
Ti      3.91208602     2.96814800     1.20975502    -0.58761402    -0.85832634    -0.07477542
Ti      0.00594901     6.55258302     1.17809599     0.79917398     1.47717388     0.50945682
Ti      0.08848500     2.80961898     1.32064702    -0.50921437    -2.47598149    -0.60508930
Ti      5.68732821     2.62873223     3.68212982    -0.68736823     0.03728075    -0.89435805
Ti      5.70532420    -1.03990177     3.71023680    -0.78677509    -0.30360780    -0.69858184
Ti      1.92551223     2.90721123     3.60808882     0.42137388     0.98915106     0.22136307
Ti      1.87107122    -0.71033177     3.64182080     0.50010520    -1.72409629    -0.85567168
O       3.73914100     4.84338400     0.69070099     0.27858119     0.65013890     0.55982141
O       3.70323500     0.96507098     0.78033499     0.87066661     1.83579919    -0.61555189
O      -0.04366501     4.52710100     0.74744397     0.03422911     1.42909911     1.36442402
O      -0.27196499     0.82367503     0.72490499     0.60083541     0.81237377     1.10660990
O       5.58641622     4.63786023     4.10724283     0.18536118    -0.88770815    -0.30892973
O       5.58038022     0.79184120     3.98367280     0.46357599     1.49576502     1.22772253
O       2.01477322     5.01495723     3.93117783    -0.21178339    -2.79571628     0.11340240
O       1.80975624     1.13232120     4.12749783     0.40991756    -1.27766880    -0.47122811
O       3.75801923     2.65575525     3.09402381    -0.42753193     0.80348315     1.68220246
O       3.72647524    -0.66791578     3.16072983    -0.03251830    -0.73827558    -0.27747253
O      -0.08193876     2.56599324     3.30866282     1.61659688     1.38002599    -1.36472767
O      -0.08693176    -0.89718680     3.25263882     0.83426595    -0.30988361    -0.31282829
O       5.65840798     6.57329502     1.70642698     0.66945612    -0.58584330    -0.82522749
O       5.65474301     2.68948897     1.72545201     1.18971621     0.79143315    -0.93688129
O       1.84727798     6.94653601     1.53625802    -1.32523114    -1.34792242     0.41452960
O       1.98517501     2.72704601     1.52554599    -2.73692413     0.71050791     0.71464610
