# total energy = -19069.07449003 eV

CRYSTAL
PRIMVEC
        5.93400000     0.00000000     0.00000000
        0.00000000     9.29699974     0.00000000
        0.00000000     0.00000000     4.64899994
PRIMCOORD
22 1
Ti      4.62081200     6.58576201     2.55996099    -0.74054972     0.77967858    -2.13980706
Ti      4.21846599     2.36564700     2.30086300    -0.03964643     1.36247024    -0.16099046
Ti      1.59557302     7.52110799     1.98192300     3.50569583     0.64908089     1.65546401
Ti      1.42695101     2.29718501     2.49371398    -0.04075971     0.99070761    -0.91359505
Ti      2.93832002     4.73733000     4.40278599    -0.56905013     2.44947675     4.56061728
Ti      2.91904199     9.27549499     0.15166802     3.43300249     0.32633996    -2.46552815
Ti      5.81191198     4.30437702     4.47527698     0.05165451    -1.15365802     1.69138104
Ti      5.90017499     0.08501301     0.06349503    -2.19158061     0.48226997    -0.70399273
O       4.47164000     5.30654200     1.09778900     0.56784994     0.44301229     0.89546748
O       4.48824299     1.04482899     1.11663401     0.27080925    -2.27305915    -2.23143632
O       1.68104600     0.46522401     1.28128301    -3.02457592     1.75319296     0.98924594
O       4.48273198     8.49577501     3.85118798     2.63947723     0.71427972    -1.38071633
O       4.17267602     4.02331802     3.53131002     3.66959266    -2.97599928    -1.39275013
O       1.85863201     8.45062503     3.56616200    -3.00531475    -0.38144515     0.11832864
O       1.67904999     4.04019401     3.42102001    -4.10131678    -1.54665976     1.61406023
O       2.97851098     6.21837202     3.25172202    -0.63727927     0.51946510    -0.05720347
O       2.88242298     1.37341499     3.23335999     1.13669901     0.88763256     1.52797864
O       5.82569599     5.97851699     3.85293802     0.87163001     1.59435966    -2.34687015
O       3.30996099     7.78268798     1.19224899    -1.39160779    -1.47087853     1.63048419
O       2.82091200     3.47522099     1.61557402     0.15142003    -2.00172694    -2.33232670
O       0.07954000     7.91148300     1.09971902    -0.90602778    -2.48983408     2.21688156
O       0.02550402     2.88719499     1.41705201     0.34987765     1.34129488    -0.77469244
