# total energy = -19936.84533749 eV

CRYSTAL
PRIMVEC
        6.27560017     0.00000000     0.00000000
        0.00002368     4.00748165     0.00000000
        0.00000000     0.00000000     9.58459235
PRIMCOORD
24 1
Ti      2.27461707     2.37482990     3.55581542    -0.21210812     2.02643011    -2.19404193
Ti      4.00100636     1.63265170     6.02877704     0.21210812    -2.02643011     2.19404193
Ti      5.41230919     1.63265305     1.23644252    -0.21079583    -2.02671216     2.19550463
Ti      0.86331430     2.37482870     8.34814999     0.21079583     2.02671216    -2.19550463
Ti      2.27460544     0.37108912     1.23648096    -0.21219605     2.02646379     2.19369303
Ti      4.00101800     3.63639257     8.34811159     0.21219605    -2.02646379    -2.19369303
Ti      0.86330262     0.37108767     6.02873859     0.21091770     2.02661677     2.19602116
Ti      5.41232082     3.63639402     3.55585381    -0.21091770    -2.02661677    -2.19602116
O       1.98627530     1.41110237     4.89094413     2.32600924    -1.61858692     2.53566324
O       4.28934819     2.59637917     4.69364832    -2.32600924     1.61858692    -2.53566324
O       1.15157793     1.41111855     0.09867875    -2.32538344    -1.61953411     2.53632608
O       5.12404561     2.59636304     9.48591339     2.32538344     1.61953411    -2.53632608
O       4.28933656     0.59263830     0.09864765    -2.32589252     1.61889468     2.53588693
O       1.98628693     3.41484325     9.48594450     2.32589252    -1.61889468    -2.53588693
O       5.12403392     0.59262217     4.89097519     2.32570817     1.61938679     2.53634099
O       1.15158947     3.41485943     4.69361722    -2.32570817    -1.61938679    -2.53634099
O       0.22802139     2.43757751     2.58903751     1.11736920    -0.07641913     1.91507533
O       6.04760210     1.56990403     6.99555489    -1.11736920     0.07641913    -1.91507533
O       3.36582869     1.56986677     2.20328916     1.11848660     0.07700945    -1.91382526
O       2.90979474     2.43761482     7.38130309    -1.11848660    -0.07700945     1.91382526
O       0.22800970     0.43383664     2.20325856     1.11767721    -0.07649395    -1.91359592
O       6.04761374     3.57364490     7.38133368    -1.11767721     0.07649395     1.91359592
O       2.90978311     0.43387395     6.99558543    -1.11822280    -0.07661659    -1.91562092
O       3.36584033     3.57360760     2.58900692     1.11822280     0.07661659     1.91562092
