# total energy = -39040.20864801 eV

CRYSTAL
PRIMVEC
        7.60629642    -0.00000847    -0.00005503
       -0.00000847     7.60629642    -0.00005503
       -3.80314186    -3.80314186     9.70738094
PRIMCOORD
46 1
Ti      1.90907283     4.75496701     6.06149654    -0.00831315     0.00546668     0.02223851
Ti      3.80301463     6.64898649     1.22378870     0.00016532    -0.04438137    -0.07935481
Ti      1.83243253     0.95559723     6.04857976     0.00266264     0.00093125    -0.14409187
Ti      3.80297489     2.85869330     1.21739767    -0.00022986     0.03274275    -0.03550952
Ti     -1.90940088     4.75496944     6.06151843     0.00817405     0.00540343     0.02192766
Ti     -0.00012842     6.66436303     1.27183849     0.00015581     0.13013592     0.34753537
Ti     -1.83270161     0.95560832     6.04859226    -0.00144290     0.00062478    -0.14289888
Ti     -0.00017366     2.85080427     1.17982920    -0.00003754    -0.13666884     0.13674057
Ti      3.80322861     0.88046173     8.54595881     0.00007919     0.16055542     0.18755947
Ti      5.70918435     2.85051328     3.63385758     0.02145329     0.03252190    -0.05251532
Ti      3.80330899    -2.78808325     8.49103198    -0.00049185    -0.12803559    -0.15863712
Ti      5.70451009    -0.94965049     3.63013657    -0.17308776    -0.03418309     0.08966289
Ti      0.00015794     0.96023528     8.46544573    -0.00016661     0.03811585     0.15861630
Ti      1.89742103     2.85052467     3.63388086    -0.02123423     0.03279623    -0.05265081
Ti      0.00013018    -2.85668744     8.49984777     0.00011981    -0.00409320     0.02727350
Ti      1.90210398    -0.94963821     3.63015154     0.17284967    -0.03425276     0.08960786
O       1.93248258     2.83704153     5.66088826     0.17453966    -0.02323610     0.01781081
O       3.80319385     4.75219689     0.78716461    -0.00002083     0.01865413    -0.02252364
O       1.93821822    -0.93403858     5.66733484     0.22585710     0.02209761     0.08849046
O       3.80319595     0.95236206     0.78597723    -0.00006633    -0.02433216    -0.05731171
O      -1.93238833     2.83703407     5.66090983    -0.17486285    -0.02258535     0.01772853
O       0.00005872     4.82310091     0.76923181     0.00008819    -0.00313263    -0.00812238
O      -1.93812701    -0.93402468     5.66735684    -0.22619186     0.02159959     0.08841924
O       0.00006505     0.88611327     0.75589423     0.00017972     0.00168690    -0.06515563
O       5.70732630     4.75389449     4.06952391     0.03066273     0.01913493     0.07036958
O       3.80310131    -0.94975250     8.92097450    -0.00001157    -0.08779395    -0.01918095
O       5.68571388     0.95143254     4.06119408    -0.03700462    -0.01527596    -0.04788373
O      -0.00003861     2.84153537     8.90312726     0.00016944    -0.07888302    -0.08721648
O       1.89886051     4.75390525     4.06955523    -0.03073704     0.01907528     0.07022842
O      -0.00004129    -0.94215986     8.90279965     0.00006788     0.06622779    -0.15998310
O       1.92048142     0.95143099     4.06123524     0.03711363    -0.01515717    -0.04763896
O       1.98732865     0.97987898     8.05196234     0.01816896     0.22915120    -0.12938979
O       3.80315252     2.85391319     3.21376021    -0.00014244     0.03222493    -0.10979052
O       1.91650920    -2.88538776     8.08721042     0.02176594    -0.18728874     0.04706586
O       3.80315155    -0.95197695     3.21660732    -0.00002005    -0.02763140    -0.00465524
O      -1.98726835     0.97988617     8.05194521    -0.01940129     0.22909540    -0.12895784
O      -0.00000203     2.85034515     3.21925457     0.00003780    -0.03406970     0.01370219
O      -1.91646805    -2.88538436     8.08723981    -0.02183433    -0.18728514     0.04706303
O       0.00000393    -0.94879582     3.25185934     0.00001620     0.04304980     0.11583981
O       3.80314210     4.73628719     6.48209665     0.00002905    -0.05898473    -0.03061208
O       5.69981919     6.65576582     1.63036179     0.01021371     0.00160283     0.10705486
O       5.71549899     2.85241947     1.62771884     0.07914681     0.00753745    -0.10257497
O      -0.00000883     4.75659778     6.49048141     0.00003060     0.02899280     0.00126730
O       1.90644334     6.65576987     1.63038550    -0.01017103     0.00160463     0.10697182
O      -0.00008053     0.94892183     6.51284848     0.00071117    -0.04132870    -0.08413295
O       1.89079166     2.85242685     1.62774876    -0.07898972     0.00756984    -0.10238548
