# total energy = -19906.54146528 eV

CRYSTAL
PRIMVEC
        7.25899262     0.00000000     0.00000000
        0.00003375     6.32107930     0.00000000
        0.00000000     0.00000000    11.93021208
PRIMCOORD
24 1
Ti      2.63105568     3.74586561     4.42602374     0.38674728    -0.92438135     1.00271029
Ti      4.62797076     2.57521342     7.50418881    -0.38674728     0.92438135    -1.00271029
Ti      6.26042621     2.57521546     1.53903487     0.38620632     0.92435847    -1.00290750
Ti      0.99860023     3.74586377    10.39117782    -0.38620632    -0.92435847     1.00290750
Ti      2.63103907     0.58532609     1.53908270     0.38674728    -0.92438135    -1.00271029
Ti      4.62798737     5.73575313    10.39112999    -0.38674728     0.92438135     1.00271029
Ti      0.99858362     0.58532378     7.50414097    -0.38620632    -0.92435847    -1.00290750
Ti      6.26044282     5.73575538     4.42607158     0.38620632     0.92435847     1.00290750
O       2.29752890     2.22575938     6.08789609     0.93318095     1.44270771    -0.90228425
O       4.96149754     4.09531964     5.84231646    -0.93318095    -1.44270771     0.90228425
O       1.33203360     2.22578493     0.12282824    -0.93302077     1.44282033    -0.90317103
O       5.92699291     4.09529417    11.80738398     0.93302077    -1.44282033     0.90317103
O       4.96148093     0.93477993     0.12278951    -0.93318095    -1.44270771    -0.90228425
O       2.29754551     5.38629910    11.80742271     0.93318095     1.44270771     0.90228425
O       5.92697623     0.93475445     6.08793482     0.93302077    -1.44282033    -0.90317103
O       1.33205007     5.38632464     5.84227774    -0.93302077     1.44282033     0.90317103
O       0.26375639     3.84483878     3.22264803    -0.83043758     0.08438261    -0.00652315
O       6.99527004     2.47624025     8.70756452     0.83043758    -0.08438261     0.00652315
O       3.89325997     2.47618150     2.74249619    -0.83005448    -0.08415172     0.00633083
O       3.36576647     3.84489753     9.18771616     0.83005448     0.08415172    -0.00633083
O       0.26373972     0.68429906     2.74245807    -0.83043758     0.08438261     0.00652315
O       6.99528672     5.63677996     9.18775428     0.83043758    -0.08438261    -0.00652315
O       3.36574980     0.68435781     8.70760257     0.83005448     0.08415172     0.00633083
O       3.89327664     5.63672122     3.22260991    -0.83005448    -0.08415172    -0.00633083
