# total energy = -4989.23663953 eV

CRYSTAL
PRIMVEC
        3.13389741     0.00000000     0.00000000
        0.48980989     4.88585692     0.00000000
       -0.00000326    -0.00006372     4.91651210
PRIMCOORD
6 1
Ti      1.81185207     2.44289660     2.45825605     0.00000000     0.00000000     0.00000000
Ti      0.00000000     0.00000000     0.00000000     0.00000000     0.00000000     0.00000000
O       1.66240480     0.95216918     0.95815578     0.09246410    -0.40213277    -0.44088985
O       1.96129940     3.93362402     3.95835626    -0.09246410     0.40213277     0.44088985
O       0.14944593     1.49070159     3.41641283    -0.09217125     0.40057108    -0.43955339
O       0.34036091     3.39509149     1.50009921     0.09217125    -0.40057108     0.43955339
