# total energy = -19959.98151056 eV

CRYSTAL
PRIMVEC
        5.93400000     0.00000000     0.00000000
        0.00000000     9.29699974     0.00000000
        0.00000000     0.00000000     4.64899994
PRIMCOORD
24 1
Ti      4.44080299     6.81374602     2.34880699     1.77482160     2.89686146     0.32805000
Ti      4.49423603     2.43167800     2.38386302    -1.20425117    -2.60158687     0.09989974
Ti      1.51921502     6.81408300     2.14529002    -1.53880736     3.14361418     0.98259655
Ti      1.47369398     2.42697398     2.32868000     1.27723119    -2.96089095     0.28518507
Ti      2.91429400     4.67182098     4.62258199     0.89380655    -1.59816129     0.08771784
Ti      2.96489700     9.21604298     0.08910599    -0.36336232     0.88122434    -1.12672621
Ti      5.91123998     4.64525702     0.01455200    -0.67204136    -0.65135349    -0.63739137
Ti      5.91075399     0.02695100     0.03904698     0.48327656    -0.24106544    -0.21846080
O       4.45897700     5.57459202     0.84385298     0.21731975    -0.27166929    -0.06441876
O       4.47161200     0.84006597     0.89987200    -0.76498729     1.67260916     1.03917446
O       1.49257899     5.64768902     0.73544001    -0.33138395    -0.14725125     0.21181193
O       1.49395601     0.88179398     0.93008903     0.05716490     1.20603912     1.00057731
O       4.42786302     8.31793499     3.81030697    -0.08560954    -0.54911945    -1.04768019
O       4.46993499     3.81482498     3.69535200     0.22177084     0.69963831     0.98762845
O       1.41872299     8.46525799     3.87917601     1.04363481    -1.35819860    -1.76809816
O       1.53276402     3.79488802     3.70984998    -0.56762420     0.36444835     1.11960966
O       2.95071600     5.97577601     3.14436699    -0.38992851     0.30190650    -0.05152853
O       3.05366500     1.61565302     3.18191698    -0.27087045    -1.12444333     0.80539965
O       0.06401103     5.98765101     3.14127199    -0.15815401    -0.20439763     0.15298481
O       5.92874702     1.51408602     3.32026302    -0.29829976     0.44917935    -0.68788399
O       2.99883102     7.85431402     1.32492802    -0.33721290    -1.71488119     2.06765776
O       2.86445402     3.32893300     1.49325200     1.26006316     1.45608568    -2.00249338
O       5.88255900     7.90445103     1.47608898     0.54749271    -1.37656554     0.60514946
O       0.07178702     3.28339799     1.50494798    -0.79404951     1.72797814    -2.16876155
