# total energy = -19074.60054701 eV

CRYSTAL
PRIMVEC
        5.17600016     0.00000000     0.00000000
        0.00000000     5.50899976     0.00000000
        0.00000000     0.00000000     9.26300011
PRIMCOORD
22 1
Ti      1.97649798     3.39994198     3.28212802    -0.03770421     0.53923664     0.19060778
Ti      3.67821401     2.26505199     5.90282501    -0.52501123    -0.89220758    -0.36863668
Ti      4.46196399     2.26079799     1.25496200     0.09766108    -0.12135997    -1.31225529
Ti      0.59268900     3.24189901     8.10162099    -0.77562344    -0.34359773     0.90048345
Ti      1.83202900     0.42339498     1.28099800     0.52312276     0.35780205    -2.27867213
Ti      3.17175900     5.15911702     7.89596699    -0.07800601     0.20960978     0.86570618
Ti      0.57870602     0.00342298     6.14251600     1.19739378     1.38807201    -0.42458236
Ti      4.55402401     5.06670098     3.34042800     0.62203005    -0.43686864     1.58975455
O       3.64487098     3.42698801     4.39456898    -0.87223139     0.25839519     0.65719015
O       0.89425103     1.94706202     0.29075898    -0.37702336     0.02781678    -0.84783675
O       4.14689800     3.79426200     8.89409900     0.51348343    -1.55277154     0.40511988
O       3.43876099     0.75148498     0.11635899     0.02124632     1.52120635     0.60408451
O       1.71368798     4.61117700     9.09744600    -1.05824434     0.46666260     0.93200416
O       4.56052902     0.93091100     4.79676999    -0.91974256    -0.18640068     0.30624498
O       0.97471401     4.77763299     4.44796799     0.68371161    -1.91231911    -0.68683293
O       0.28811600     3.56837698     2.21836601    -0.21281594     0.12049428     1.27958118
O       4.87470097     1.55505201     7.15891399     0.58141329     0.09608499     0.08080723
O       2.66701900     1.91271498     2.35532100     0.73192109     0.22830762    -0.21105731
O       1.72857701     3.97022900     6.84135600     1.03103692     0.44069779    -1.43807201
O       0.24049799     0.77141602     2.24400402    -1.02261655     0.15206384     0.20868392
O       2.28831102     1.10880801     6.53868698    -0.11170985    -0.67892112     0.04175833
O       2.89203501     4.73084297     2.41032998    -0.01229142     0.31799673    -0.49408034
