# total energy = -19911.94841730 eV

CRYSTAL
PRIMVEC
        6.52004318     0.00000000     0.00000000
        1.70816823     6.72577222     0.00000000
        0.00000000     0.00000000    11.76312210
PRIMCOORD
24 1
Ti      3.37546104     3.98568659     4.36403462    -0.27289930    -1.80992077     0.67137622
Ti      4.85275055     2.74008607     7.39908814     0.27289930     1.80992077    -0.67137622
Ti      6.31902613     2.74008840     1.51747979     0.17490938    -0.42519326    -0.24796088
Ti      1.90918550     3.98568452    10.24564310    -0.17490938     0.42519326     0.24796088
Ti      2.52137706     0.62280053     1.51752696    -0.27289930    -1.80992077    -0.67137622
Ti      5.70683456     6.10297240    10.24559594     0.27289930     1.80992077     0.67137622
Ti      1.05510139     0.62279795     7.39904098    -0.17490938     0.42519326    -0.24796088
Ti      7.17311022     6.10297491     4.36408179     0.17490938    -0.42519326     0.24796088
O       2.66510991     2.36825888     6.00263145     1.79252262     1.97750739    -0.58657452
O       5.56310161     4.35751379     5.76049132    -1.79252262    -1.97750739     0.58657452
O       1.79790689     2.36828602     0.12110797    -0.78160639     0.14750681     0.93336813
O       6.43030479     4.35748676    11.64201446     0.78160639    -0.14750681    -0.93336813
O       4.70901762     0.99462753     0.12106980    -1.79252262    -1.97750739    -0.58657452
O       3.51919398     5.73114513    11.64205263     1.79252262     1.97750739     0.58657452
O       5.57622078     0.99460044     6.00266961     0.78160639    -0.14750681     0.93336813
O       2.65199075     5.73117230     5.76045315    -0.78160639     0.14750681    -0.93336813
O       1.27589299     4.09099608     3.17751293     0.52125048     1.60364263     1.72293363
O       6.95231853     2.63477659     8.58560983    -0.52125048    -1.60364263    -1.72293363
O       4.16607044     2.63471387     2.70408589     0.60967101     1.65870720     0.87691774
O       4.06214116     4.09105886     9.05903667    -0.60967101    -1.65870720    -0.87691774
O       0.42180900     0.72810982     2.70404832     0.52125048     1.60364263    -1.72293363
O       7.80640260     5.99766290     9.05907424    -0.52125048    -1.60364263     1.72293363
O       3.20805716     0.72817254     8.58564734    -0.60967101    -1.65870720     0.87691774
O       5.02015443     5.99760012     3.17747536     0.60967101     1.65870720    -0.87691774
