# total energy = -19961.34009325 eV

CRYSTAL
PRIMVEC
        7.60600008     0.00000000     0.00000000
        0.00000000     7.60600008     0.00000000
       -1.89786986    -1.89786986     4.85670466
PRIMCOORD
24 1
Ti      3.76016399     6.58559701     1.29246998    -0.39953518     1.08978510    -0.77882703
Ti      3.75919898     2.92574598     1.22425702     0.86113090    -1.52866898     0.00827227
Ti     -0.02968399     6.63214302     1.18192501     0.47466979    -0.48997094     0.52108130
Ti      0.02937003     2.85795901     1.17628699    -0.10511008     0.50179339    -0.61732853
Ti      5.76717523     2.87211222     3.57288181    -1.08666636     0.09702936     0.51628131
Ti      5.72787425    -0.98165677     3.65045084     0.83046483    -0.05089886    -0.46084547
Ti      1.83763521     2.88492524     3.61753680     1.27329586     0.39060702     0.32013512
Ti      1.88619420    -0.93609080     3.64418083    -0.71443553    -0.31437044     1.30713031
O       3.67727102     4.77723700     0.87389897     0.29061807     0.34239393    -1.03603694
O       3.62464598     1.02889399     0.82941999     0.84088243    -1.19290001     0.31847701
O       0.09951199     4.72785799     0.75226298    -0.25083049    -0.35216439    -0.02613630
O       0.14895202     0.92171702     0.68568100    -0.70122725     0.40417320     1.20832817
O       5.98128823     4.71360725     4.09787480    -0.81979140    -0.06182220    -0.45083616
O       5.83929722     0.93714825     4.02663781    -0.67157831     0.09293719    -0.05290972
O       1.66739523     4.77680223     4.05772681     0.69587421    -0.99869834     1.02447983
O       1.87162722     0.93973222     4.02526782     0.31283909     1.14818156     0.28062856
O       3.79677824     2.99473423     3.27070583     0.51697576    -0.33835344    -0.21672119
O       3.78598922    -1.17090076     3.29101280     0.73344550     0.59182009    -0.45764342
O       0.01673221     2.81046223     3.20946484     0.10734977    -0.30961647    -0.87113944
O      -0.01586479    -1.02058077     3.19946783    -0.91048170     0.61771393    -0.20466529
O       5.71450802     6.56292701     1.56664401    -0.82808296     0.44189232     0.11471495
O       5.73752702     3.02698103     1.57651603     0.28715762    -0.72706762     0.31350321
O       1.81835500     6.53155399     1.77733202     1.37137243     0.52785667    -1.36758442
O       1.97382601     2.87207899     1.62870502    -2.10833700     0.11834741     0.60764215
