# total energy = -19514.29836863 eV

CRYSTAL
PRIMVEC
        5.93400000     0.00000000     0.00000000
        0.00000000     9.29699974     0.00000000
        0.00000000     0.00000000     4.64899994
PRIMCOORD
23 1
Ti      4.52105399     6.80741700     2.51076603     0.12652969     0.53432789    -0.22361252
Ti      4.39787301     2.55227702     2.32754999    -0.27539430    -1.14998417     0.11212945
Ti      1.36149099     7.27294402     2.25599099     1.90217610    -3.02712748     0.65396265
Ti      1.54014102     2.16995000     2.16140998    -0.18903452     1.17941457     0.65984430
Ti      3.14640501     4.56273400     4.57989199    -3.70377935     0.97679485     0.79778430
Ti      3.04050801     9.20040098     0.24817302     0.99655198    -1.24592697    -1.48656715
Ti      0.02545702     4.77209398     0.14701301     2.85317943    -0.46577377    -0.52992513
Ti      5.90815001     0.04185099     4.35714901    -0.32971376    -1.09730327     0.49033501
O       4.28245701     5.40362401     1.24630699     0.24482953    -0.40279483    -0.98203476
O       4.51977200     0.72925398     0.83515399    -0.32159396     0.88616497     0.83028537
O       1.64464400     5.61713602     0.82156498    -0.43474774    -0.28819635     0.55527416
O       1.59714002     0.92572898     0.70030502    -1.77017999    -0.01113262     0.94846051
O       4.39134502     8.33923401     3.58611902    -0.49961875     0.77253991     1.71962591
O       4.44900598     3.36683998     3.97099001    -0.04017093     1.84642556    -1.03493857
O       1.51389002     8.64262699     3.40653097     0.20442206    -0.01443829     1.93300210
O       1.18550299     3.69349501     3.85040099     1.30131190     0.28844626    -0.95167336
O       2.88825102     1.39780901     3.05991501    -0.15732612     0.61757252    -0.06400378
O       0.05080901     6.30280400     3.62863698     0.12920955    -0.15444751    -1.95607313
O       5.66207502     1.32458199     3.24330900     1.21531618     1.30241182    -2.15242218
O       3.04360899     7.73981202     1.51996201    -0.12651709     0.72633383    -0.99762825
O       2.85516702     3.21128801     1.16357198    -0.14042548    -1.67010284     3.15273954
O       5.91542202     7.73325700     1.40570401    -2.00464771     0.87012488    -1.72999774
O       5.81343998     3.31034200     1.52146302     1.01962327    -0.47332895     0.25543328
