# total energy = -19073.88803089 eV

CRYSTAL
PRIMVEC
        5.17600016     0.00000000     0.00000000
        0.00000000     5.50899976     0.00000000
        0.00000000     0.00000000     9.26300011
PRIMCOORD
22 1
Ti      1.80549102     3.42503800     3.32926898     1.22948425    -0.02286149    -1.45254296
Ti      3.46587699     2.19392199     5.90626402    -0.75288870     1.19327590    -0.02393544
Ti      4.54499100     2.36617501     1.35510202    -0.85316974    -1.29230635    -0.99286296
Ti      0.71953099     3.08367898     8.07959700     1.43187514     0.31336411    -0.08234758
Ti      1.85668400     0.46760901     1.27905502     0.41967952     0.97612765    -1.66444024
Ti      3.31692698     4.94377501     8.09431300    -0.40176561     0.53342080     1.23213557
Ti      0.97676299     0.25777801     6.00945502     0.99468716    -0.33787830     0.42527296
Ti      4.27431102     5.12527000     3.55041400    -0.85139696     0.27914966    -0.72403603
O       3.42044998     3.49985397     4.33738699     0.57431241    -0.41214876     1.37358641
O       0.94834501     1.76149999     0.14532001    -1.23228778     1.48247626    -1.16876505
O       4.32106700     3.62895301     9.08986500     0.25621824    -0.51785585    -0.76860612
O       3.45921401     0.82178697     0.14348498     0.26948128    -0.97598109    -0.52917359
O       1.64342800     4.63243500     8.81599398    -0.90192507     0.06793140     1.80635388
O       3.33634403     0.85259800     4.64990701     1.12043575    -0.86420286    -0.92056532
O       0.84301503     4.93644098     4.26135099     0.30168333    -0.11804273     2.43793635
O       0.28273999     3.74624700     2.20506901    -0.64871656    -1.16727921     0.46526572
O       0.07189900     1.86362199     6.47341302    -0.11919844     0.10250786     0.20977870
O       2.76342001     2.05895602     2.06733200    -0.32192512     0.49390113     1.12216456
O       2.36662597     3.55457201     6.87786002    -0.30367491    -0.44456241    -0.75177953
O       0.11231401     0.77781700     2.20563999    -0.10544175     0.57397945     0.86854982
O       2.47476499     0.87658899     7.01182399     0.04608241     0.03907924    -1.04817976
O       2.79019701     4.71717798     2.31769602    -0.15154859     0.09790533     0.18619062
