# total energy = -4990.20739153 eV

CRYSTAL
PRIMVEC
        3.93625840     0.00000000     0.00000000
       -0.00000876     3.93625840     0.00000000
       -1.96816007    -1.96816445     5.02354115
PRIMCOORD
6 1
Ti     -0.00017334     2.95234289     1.25588515     0.00010850    -0.00010850     0.00000000
Ti      1.96826280    -0.98424905     3.76765567    -0.00010850     0.00010850    -0.00000000
O       0.00003932     0.98405791     0.81829375    -0.00014347    -0.00089217    -0.47387403
O       1.96805003     0.98403582     4.20524713     0.00014347     0.00089217     0.47387403
O      -0.00002223    -0.98404083     3.33006427    -0.00089217    -0.00014347    -0.47387403
O       1.96811152     2.95213450     1.69347661     0.00089217     0.00014347     0.47387403
