# total energy = -19071.66076302 eV

CRYSTAL
PRIMVEC
        5.17600016     0.00000000     0.00000000
        0.00000000     5.50899976     0.00000000
        0.00000000     0.00000000     9.26300011
PRIMCOORD
22 1
Ti      1.87579502     3.49424798     3.36901098    -2.26326505     0.36931108    -2.19478909
Ti      3.60419699     2.40896698     6.09312201     0.97291608     0.52254863    -0.33156393
Ti      4.38061299     2.22759799     1.70465799    -2.10467729     0.61716989    -3.52328398
Ti      0.90347802     2.60416502     7.86207001     0.62113119     0.72959013    -0.03291913
Ti      1.78955898     0.62061199     1.10102100     1.40219380    -1.02667864    -3.06229582
Ti      3.37287303     5.43498400     7.58732801    -0.27656750    -0.87720056     2.31596060
Ti      0.97704102     5.39809702     6.32096801     1.40061925    -1.77851808     1.83161189
Ti      4.36306600     5.19641799     3.62580800    -1.65667757    -2.50043912    -0.48575870
O       3.30605403     2.93905198     4.22396398     1.92478948     0.06873127     2.66767376
O       0.60639601     1.90447802     0.20514599     0.03017628     1.21591807     0.99770590
O       4.75580601     3.83329898     7.55532501    -0.25093282     0.76442011    -1.50570490
O       3.57238999     0.98062201     0.14387298    -1.27204219    -0.27753681    -0.27886478
O       1.71028097     5.12889301     8.73274302    -0.10509362     0.30475220     0.33308320
O       3.77834901     0.25433201     5.17801601    -0.94217699     0.34626062     0.56551152
O       0.79834098     4.96766800     4.56456299     2.21195687    -1.67573176    -0.45656870
O       0.02944803     3.70280901     2.28651298     0.15123929     0.33771118     1.18053145
O       5.08729899     1.22762698     7.03482500    -2.21969589     0.45938123    -0.10680598
O       2.45455698     2.19033999     1.90734097     0.45923725     1.26091677     1.85687787
O       2.35498900     3.58104299     7.11936699     0.62405608     1.76575023    -1.93832248
O       5.07893402     0.80894601     2.36605499     2.13359090    -0.83453669     1.24984713
O       2.32553901     1.31674498     6.75179698    -2.06171748    -0.71472478     0.32858325
O       2.41178400     4.85426801     2.35155897     1.22093918     0.92290528     0.58949067
