# total energy = -19517.83635367 eV

CRYSTAL
PRIMVEC
        5.93400000     0.00000000     0.00000000
        0.00000000     9.29699974     0.00000000
        0.00000000     0.00000000     4.64899994
PRIMCOORD
23 1
Ti      4.49495100     7.00270098     2.38346900     0.27981866     0.78424435    -0.31140596
Ti      4.41173401     2.39616698     2.27556499     0.58226098    -0.89478254    -0.27680533
Ti      1.43377501     6.98251599     2.24074100    -0.10852013     0.60370142    -0.27250901
Ti      1.45240401     2.27824702     2.36443100    -0.06583389     0.33112504     0.12472837
Ti      3.00330098     4.58704001     0.07645399    -0.71325848    -0.03829480     0.83446701
Ti      2.96947697     0.09501102     0.09607298     0.73295493    -0.47726814    -0.18986987
Ti      5.93023501     4.60547702     4.57917802     0.48840385     0.22407789     0.34859544
Ti      0.06621801     0.07711700     4.50629899    -0.72826421    -0.56768231     0.24359849
O       4.48930002     5.47718203     0.91568900    -0.47746303     0.54580607     0.03448262
O       4.55292099     0.99009799     0.90381400    -0.82442942    -0.68209490    -0.47068946
O       1.45178800     5.54963999     0.91426499     0.53392551    -0.05243433    -0.20924057
O       1.37389898     1.04672001     0.90764201     0.92777366    -1.43119302    -0.68788939
O       4.48279400     8.39101099     3.84624801    -0.49012469    -0.72339634    -0.72639656
O       4.39289901     3.76516800     3.61541798     0.15263668     0.52433220     1.01127927
O       1.62512101     8.22709098     3.85098499    -0.79521011     0.75855516    -0.29601327
O       1.53065297     3.68728602     3.79195299    -0.35468793     0.30960336    -0.39499435
O       2.85653700     1.36698401     3.35000701     0.64933877     0.40168128    -0.93946396
O       5.91170000     6.04732998     3.22884400     0.08959269    -0.63738519     0.48538975
O       5.88392798     1.28518299     3.07795598     0.32989246     0.13984261     1.18921047
O       2.95518199     7.82298202     1.40092099     0.17892622    -0.44847692     1.42533013
O       2.95977398     3.26768201     1.43536699    -0.31369373    -0.46191762    -0.05679389
O       5.87343498     7.80146398     1.47346198     0.30138405     0.84998105    -0.42687373
O       0.00809900     3.18671403     1.44402999    -0.37542337     0.94197567    -0.43813645
