# total energy = -19960.98931210 eV

CRYSTAL
PRIMVEC
        7.60600008     0.00000000     0.00000000
        0.00000000     7.60600008     0.00000000
       -1.89786986    -1.89786986     4.85670466
PRIMCOORD
24 1
Ti      3.85996999     6.72868897     1.09987502    -1.10510169     1.01484976     0.50987051
Ti      3.77903202     2.94608300     1.24738598     1.19665228    -1.25556990    -1.24320829
Ti     -0.10366201     6.61926501     1.22085700     0.98773798    -0.14775184     0.17121394
Ti      0.01168000     2.73449402     1.24668202    -0.88810513     0.76625536     0.93338098
Ti      5.62327823     2.77799424     3.72267882     1.36387714    -0.62873163    -0.88198487
Ti      5.67681023    -0.98522977     3.66680580    -0.26310803     0.71856472    -0.07409922
Ti      1.93912024     2.90784423     3.60388281    -1.48189699    -0.64987742     0.59260787
Ti      1.90644624    -0.85770578     3.51982084     0.52258385     0.32993694     0.78663702
O       3.94847701     4.86828602     0.77211300    -0.26215312    -1.67094231     0.40413746
O       3.92272602     1.07940999     0.66388498    -0.50140258    -1.03964523     0.20595932
O      -0.11058598     4.63917201     0.86579500    -0.10473830     1.77748964    -0.38568876
O      -0.11131900     0.95010600     0.95091601     0.35632983    -2.05314234    -1.38972163
O       5.62843422     4.70678922     4.09543683    -0.28774383     0.04711188     0.31696520
O       5.81381321     0.86132223     4.12342883    -0.38227330     0.07560486    -0.13017886
O       2.10752825     4.77031521     4.03924281    -0.29726797     0.47716607    -1.15762497
O       1.93982224     0.97746023     4.10284881    -0.42512795     0.53711522    -0.40076725
O       3.75095821     2.55731822     3.18744080     1.24263159     0.89499157     0.19307192
O       3.81151921    -0.89849180     3.07158479    -0.30543868    -0.15967534     1.11701978
O      -0.01826678     2.72640925     3.25488581     0.52608801     0.66045983     0.71607512
O      -0.00697577    -1.00943079     3.31405683    -0.02120441    -0.34860598    -1.11181844
O       5.65152699     6.90181302     1.70015099     1.79546757    -0.90617485    -0.13873601
O       5.75970002     2.74015801     1.72027502    -1.91303722     0.79355072     0.27941114
O       1.90660103     6.70517800     1.44219502    -0.82293844     0.02053155     0.98123000
O       1.87928299     2.76259402     1.66010402     1.07016964     0.74648923    -0.29375147
