# total energy = -19516.93915448 eV

CRYSTAL
PRIMVEC
        5.93400000     0.00000000     0.00000000
        0.00000000     9.29699974     0.00000000
        0.00000000     0.00000000     4.64899994
PRIMCOORD
23 1
Ti      4.34968602     7.01028599     2.21535600     1.53415031     0.02736529    -0.52266639
Ti      4.57752397     2.34363698     2.36996799    -0.56766405    -0.39841392     0.07755556
Ti      1.41145400     6.97742498     2.23146299    -1.82507512     0.03962714     0.16000701
Ti      1.49436602     2.36429098     2.30892898     0.30230502    -0.33197325     0.78046457
Ti      2.98656601     4.47445501     0.16841002    -1.10174151     0.10986688    -0.18174981
Ti      2.98817000     0.21615001     4.63924398    -1.52543864    -0.40450873    -0.58863835
Ti      0.00572300     4.54776701     4.64710798     0.48888311     1.32984395    -0.94842760
Ti      5.86600602     9.27651000     4.52347900     1.49998960    -0.92604717    -0.02147978
O       4.29512102     5.48301001     0.92258799     1.24006614     1.10280749     0.52550797
O       4.63329100     0.93153400     0.92458098    -1.08601689    -0.13658631    -0.03187064
O       1.45918801     5.49875002     1.02801301     0.20920071     0.27296050    -0.27335053
O       1.49339699     1.14618797     0.94008799     0.81193308    -1.89375676    -1.34365104
O       4.51113599     8.37577603     3.54090501    -0.38344161     0.64102434     1.24347645
O       4.32836801     3.51808000     3.82095201     1.03511880     1.22043062     0.76067658
O       1.60641798     8.49763602     3.70194100    -0.31547525    -0.57499221     0.19316808
O       1.56614902     3.74756899     3.77781099    -0.95872230     0.07700251     0.31154171
O       3.06459801     1.39996498     3.16316601    -0.19512495    -0.51439617     0.75153219
O       5.90243400     5.96678401     3.42863000    -0.04000509     0.67319990    -1.13654732
O       0.13021301     1.40326001     3.32398102    -0.92405045     0.87549695    -0.97599884
O       2.86512502     7.81895900     1.35800699     0.73426980     0.02839322     0.49006890
O       2.88608600     3.39349898     1.57398698     1.53167640    -1.24833558     0.30278376
O       5.86448903     7.65836900     1.27154599     0.30745494     0.80986206     0.36710944
O       0.05514101     3.40451401     1.58161301    -0.77229231    -0.77887023     0.06048831
