# total energy = -4985.35702820 eV

CRYSTAL
PRIMVEC
        3.51345859     0.00000000     0.00000000
        1.19316279     3.30465639     0.00000000
       -2.35334274    -1.65235070     4.55637192
PRIMCOORD
6 1
Ti      0.89477080     2.47861905     1.13909303     0.00088060    -0.00120533    -0.00005811
Ti      1.45850723    -0.82631379     3.41727899    -0.00088060     0.00120533     0.00005811
O       0.29832730     0.82615955     0.74219580     0.00055767     0.00123284    -0.48349664
O       2.05495056     0.82614560     3.81417631    -0.00055767    -0.00123284     0.48349664
O      -0.29829881    -0.82613958     3.02038176     0.00124339     0.00061167    -0.48238284
O       2.65157661     2.47844469     1.53599035    -0.00124339    -0.00061167     0.48238284
