# total energy = -19960.55837501 eV

CRYSTAL
PRIMVEC
        5.93400000     0.00000000     0.00000000
        0.00000000     9.29699974     0.00000000
        0.00000000     0.00000000     4.64899994
PRIMCOORD
24 1
Ti      4.41655900     6.92908099     2.35874102     1.17101734     0.84871633     0.04198382
Ti      4.48735402     2.36339101     2.37827401    -0.08704550    -0.11714053    -0.49020517
Ti      1.44974299     6.97422299     2.30498000    -0.89690550     0.01115936    -0.40235902
Ti      1.56457001     2.25044098     2.29699302    -0.34426441     0.99389012     0.25142904
Ti      2.99204501     4.60383398     4.58650999    -2.38740001     0.72352335     0.00886208
Ti      2.96645299     0.02876602     0.01453301     0.90290363    -1.83520090     0.21846440
Ti      5.86582298     4.64050803     0.12009000     2.38035879     0.77520332    -0.66106404
Ti      0.01231501     0.07346499     4.57546198    -0.77643308    -1.62035429     0.16300749
O       4.46751702     5.52818598     0.91862599    -0.82648836     0.10260402     0.04763253
O       4.51603802     0.92839402     0.83462100    -0.48753071     0.16723181     0.27190583
O       1.42794798     5.59616700     0.91633798     0.37496494    -1.05822943    -0.78046020
O       1.48307999     0.98761901     0.75905301    -0.11722872    -0.26871843     0.85627846
O       4.47676900     8.33804299     3.77885802     0.03676910     0.87039408    -0.04970844
O       4.41191499     3.81992900     3.71102300     0.19813443    -1.05572337    -0.16796303
O       1.47101401     8.26484899     3.64812500     0.23126027     2.18829757     2.01415103
O       1.44569600     3.72617298     3.75852597     0.73304801     0.14714455     0.15475656
O       3.02931300     6.08189203     3.28979601    -0.49106160    -0.51475253    -0.06400738
O       2.88181199     1.40760402     3.28591899     0.78110889     0.02772987    -0.78790534
O       0.02854202     6.00458701     3.14001800    -0.57311016    -0.17891002     0.73270477
O       0.05989101     1.54602002     3.19536703    -0.92259135    -1.76977349     0.98252687
O       3.01149201     7.92508899     1.36916099    -0.19797167    -0.19352084     0.28109316
O       2.96588598     3.13506299     1.44653200     0.37456899     1.04561971    -0.71402878
O       5.91702199     7.93436901     1.53330902     0.22412417     0.34949970    -1.21450114
O       5.80854398     3.23578601     1.46184898     0.69977278     0.36131006    -0.69259374
