# total energy = -4908.46952821 eV

CRYSTAL
PRIMVEC
        5.51456512     0.00000000     0.00000000
       -0.00000715     2.09173130     0.00000000
       -2.75731562    -1.04596494     6.08609771
PRIMCOORD
6 1
Ti     -0.00023563     1.56885768     1.52152416    -0.04736951    -0.03337499    84.22307571
Ti      2.75747802    -0.52309158     4.56457307     0.04736951     0.03337499   -84.22307571
O       0.00005855     0.52291618     0.99137550     0.04495884     0.03418180   -78.59973446
O       2.75718369     0.52284987     5.09472179    -0.04495884    -0.03418180    78.59973446
O      -0.00002391    -0.52297379     4.03442436    -0.00109066    -0.00004191    -0.57145026
O       2.75726604     1.56873979     2.05167293     0.00109066     0.00004191     0.57145026
