# total energy = -4985.12591691 eV

CRYSTAL
PRIMVEC
        4.19059179     0.00000000     0.00000000
        1.79489164     3.78674313     0.00000000
       -2.99278139    -1.89339666     5.49591867
PRIMCOORD
6 1
Ti      1.34606287     2.84020310     1.37397961     0.00009616    -0.00009616    -0.00000000
Ti      1.64663945    -0.94685640     4.12193872    -0.00009616     0.00009616     0.00000000
O       0.44876644     0.94668081     0.89524018    -0.00056307    -0.00078959    -1.95053728
O       2.54393574     0.94666574     4.60067821     0.00056307     0.00078959     1.95053728
O      -0.44872868    -0.94665697     3.64319934    -0.00078959    -0.00056307    -1.95053728
O       3.44143079     2.84000348     1.85271905     0.00078959     0.00056307     1.95053728
