# total energy = -19924.76351164 eV

CRYSTAL
PRIMVEC
        6.42569663     0.00000000     0.00000000
        0.00002261     3.68247626     0.00000000
        0.00000000     0.00000000     9.72154194
PRIMCOORD
24 1
Ti      2.32901945     2.18223214     3.60662285    -0.58707769     2.01536047    -2.10191232
Ti      4.09669994     1.50024443     6.11491949     0.58707769    -2.01536047     2.10191232
Ti      5.54175765     1.50024573     1.25410951    -0.58581090    -2.01576697     2.10449063
Ti      0.88396175     2.18223094     8.46743294     0.58581090     2.01576697    -2.10449063
Ti      2.32900825     0.34099406     1.25414847    -0.58707769     2.01536047     2.10191232
Ti      4.09671115     3.34148261     8.46739397     0.58707769    -2.01536047    -2.10191232
Ti      0.88395054     0.34099260     6.11488052     0.58581090     2.01576697     2.10449063
Ti      5.54176885     3.34148401     3.60666182    -0.58581090    -2.01576697    -2.10449063
O       2.03378158     1.29666255     4.96082860     3.62618677    -1.95398796     3.44641311
O       4.39193782     2.38581396     4.76071374    -3.62618677     1.95398796    -3.44641311
O       1.17912034     1.29667739     0.10008871    -3.62654364    -1.95423402     3.44588861
O       5.24659911     2.38579917     9.62145333     3.62654364     1.95423402    -3.44588861
O       4.39192661     0.54457583     0.10005717    -3.62618677     1.95398796     3.44641311
O       2.03379279     3.13790073     9.62148486     3.62618677    -1.95398796    -3.44641311
O       5.24658791     0.54456099     4.96086013     3.62654364     1.95423402     3.44588861
O       1.17913139     3.13791557     4.76068216    -3.62654364    -1.95423402    -3.44588861
O       0.23347416     2.23989084     2.62603110     1.99504875    -0.39118578     1.70941374
O       6.19224523     1.44258573     7.09551124    -1.99504875     0.39118578    -1.70941374
O       3.44633041     1.44255129     2.23477095     1.99713135     0.39128502    -1.70878845
O       2.97938899     2.23992527     7.48677119    -1.99713135    -0.39128502     1.70878845
O       0.23346296     0.39865266     2.23473992     1.99504875    -0.39118578    -1.70941374
O       6.19225644     3.28382391     7.48680222    -1.99504875     0.39118578     1.70941374
O       2.97937778     0.39868709     7.09554222    -1.99713135    -0.39128502    -1.70878845
O       3.44634161     3.28378947     2.62600007     1.99713135     0.39128502     1.70878845
