# total energy = -4986.18252127 eV

CRYSTAL
PRIMVEC
        4.39548844     0.00000000     0.00000000
       -0.00000754     3.24883947     0.00000000
       -2.19777112    -1.62446223     4.99021136
PRIMCOORD
6 1
Ti     -0.00018982     2.43674923     1.24755255    -0.00321645    -0.00874818     8.28602502
Ti      2.19789939    -0.81237200     3.74265807     0.00321645     0.00874818    -8.28602502
O       0.00004585     0.81220218     0.81286451     0.00224663     0.00261661    -2.68832332
O       2.19766356     0.81217501     4.17734610    -0.00224663    -0.00261661     2.68832332
O      -0.00001967    -0.81219905     3.30797004    -0.00195044    -0.00014501    -1.04081688
O       2.19772903     2.43657613     1.68224063     0.00195044     0.00014501     1.04081688
