# total energy = -19949.25559442 eV

CRYSTAL
PRIMVEC
        5.72099444     0.00000000     0.00000000
        0.30428461     6.08126021     0.00000000
        0.00000000     0.00000000    10.24252383
PRIMCOORD
24 1
Ti      2.25390402     3.60374902     3.79990329     0.06322885    -0.92384939     0.62995676
Ti      3.77137479     2.47751096     6.44262066    -0.06322885     0.92384939    -0.62995676
Ti      5.05795396     2.47751304     1.32131776    -0.03351229     0.37875295    -0.40587938
Ti      0.96732491     3.60374717     8.92120631     0.03351229    -0.37875295     0.40587938
Ti      2.10176184     0.56311915     1.32135881     0.06322885    -0.92384939    -0.62995676
Ti      3.92351698     5.51814101     8.92116526    -0.06322885     0.92384939     0.62995676
Ti      0.81518272     0.56311689     6.44257955     0.03351229    -0.37875295    -0.40587938
Ti      5.21009615     5.51814326     3.79994439    -0.03351229     0.37875295     0.40587938
O       1.91787456     2.14131501     5.22668151     1.19955377     1.18569192    -0.11614063
O       4.10740426     3.93994497     5.01584244    -1.19955377    -1.18569192     0.11614063
O       1.15694478     2.14133955     0.10545252    -0.98119658     0.79272925     0.21591490
O       4.86833409     3.93992049    10.13707114     0.98119658    -0.79272925    -0.21591490
O       3.95526207     0.89931492     0.10541930    -1.19955377    -1.18569192    -0.11614063
O       2.07001674     5.18194505    10.13710435     1.19955377     1.18569192     0.11614063
O       4.71619191     0.89929044     5.22671478     0.98119658    -0.79272925     0.21591490
O       1.30908685     5.18196966     5.01580916    -0.98119658     0.79272925    -0.21591490
O       0.39294010     3.69896705     2.76676126     0.32934250     0.05026406     0.43903377
O       5.63233877     2.38229292     7.47576274    -0.32934250    -0.05026406    -0.43903377
O       3.18756405     2.38223626     2.35453328     0.45781517     0.47581701    -0.10287759
O       2.83771481     3.69902371     7.88799049    -0.45781517    -0.47581701     0.10287759
O       0.24079791     0.65833701     2.35450059     0.32934250     0.05026406    -0.43903377
O       5.78448096     5.42292297     7.88802318    -0.32934250    -0.05026406     0.43903377
O       2.68557263     0.65839366     7.47579537    -0.45781517    -0.47581701    -0.10287759
O       3.33970624     5.42286631     2.76672852     0.45781517     0.47581701     0.10287759
