# total energy = -19071.12274719 eV

CRYSTAL
PRIMVEC
        7.60600008     0.00000000     0.00000000
        0.00000000     7.60600008     0.00000000
       -1.89786986    -1.89786986     4.85670466
PRIMCOORD
22 1
Ti      4.37182500     6.48083701     1.10667701    -0.85353303     1.45505672     1.42163211
Ti      3.39646301     2.60081300     1.22660799     0.40017873     0.65445553    -0.50023890
Ti      0.24659501     6.66518998     0.89138802    -1.67801027     1.57830131     0.83465830
Ti      7.15648698     2.97729001     1.02364000     0.40144551    -1.26787315     1.28292387
Ti      5.46138423     2.74674722     3.58636879    -0.60315171     1.25321965    -0.68179870
Ti     -1.25157278    -0.57953079     3.84916880     0.20222942    -0.66395987     1.50747562
Ti      1.71314721     2.81675123     3.97983679    -0.09858719    -1.60583553     0.08397457
Ti      1.92422321    -0.91229576     3.74026581     0.31421103     0.28194779     0.17496543
O       3.46745499     4.61911498     1.03966798     0.31824613     2.05027787    -0.12170836
O       3.59761000     0.67037201     0.84255200     0.62388124     0.17525391     0.21539090
O      -0.32122001     4.93462400     1.08192099    -0.06983427    -1.73543383    -1.85068717
O       7.31799600     1.03637301     0.67947100     0.70360835    -1.15019962    -0.67894298
O      -1.46791377     4.69657224     3.92399981    -0.56680813     1.17903558     0.38298987
O       5.14796525     0.85725820     3.80633984     0.69597706     1.58085082     1.32555021
O       2.33279123     4.57168022     4.15144479    -0.31568736     2.37980214    -0.40734954
O       2.51637721     0.99751224     4.44420782    -2.17207107    -1.99011120    -2.04947106
O       3.58762024     2.95273624     3.23146882     0.07206008    -1.01919338    -0.80655690
O       0.10160224     3.06888922     3.04293784     0.63738185    -1.78347517    -0.37568716
O       6.03219699    -0.58634898     1.98840902    -0.85880020    -1.64888789    -0.96673978
O       5.40015901     2.59471899     1.74899400     1.82199596     0.60375027    -0.19385122
O       1.75338500    -0.69412598     1.86003999     0.70412694    -0.75441131     1.38204225
O       1.63619500     2.54161500     0.46693399     0.32114145     0.42742858     0.02142887
