# total energy = -19956.94731187 eV

CRYSTAL
PRIMVEC
        7.60600008     0.00000000     0.00000000
        0.00000000     7.60600008     0.00000000
       -1.89786986    -1.89786986     4.85670466
PRIMCOORD
24 1
Ti      3.65413899     6.71846299     1.18657399     1.38448043    -2.32073900     0.23789501
Ti      3.86282702     2.88453498     1.12046102    -0.73277881     2.32596991     0.12043052
Ti     -0.05633700     6.46281403     1.26011899    -1.89302246    -0.69812779    -0.41045158
Ti      0.02109099     2.68106902     1.15183901     0.36106169     1.27809071     2.82446071
Ti      5.79827720     2.71527922     3.57892083    -0.33274921     3.66705138     1.23460409
Ti      5.67636323    -0.96494477     3.74067783     0.04358741    -4.51289502    -2.11481670
Ti      1.94522525     3.01533923     3.51894881     0.40196359    -0.01312754     1.46765745
Ti      1.85694123    -0.95018776     3.63741281    -0.47144793    -0.09541702    -0.22883161
O       3.93030601     4.84224399     0.64271101     0.02387450     0.09144620     1.49370942
O       3.51384902     0.96389202     0.72503199     0.64515687     1.64251001     0.80904727
O       0.17687601     4.76763598     0.55632902    -0.85262389    -2.31733203     2.56795040
O      -0.18945699     0.71076601     0.85562601     0.43313180     4.62349800     0.66801656
O       5.71785724     4.71506122     4.22692579    -0.59905106     1.18069138    -2.25834190
O       5.92734925     0.89560022     4.27588082    -0.08917360    -1.21660713    -3.01816384
O       1.93849422     4.81248021     4.16350379     0.18616491     1.52269039    -0.71086041
O       1.80128221     1.19144120     4.06028983     0.34661466    -3.15586575    -0.98383248
O       3.85271222     3.05752424     3.22832281     2.03270103    -1.38393304    -0.56567196
O       3.68618422    -1.06162376     3.35432383     0.90028290     1.20417713    -0.66201817
O       0.09709625     3.25824323     3.57106880    -1.49477977    -1.90720904    -3.10895056
O      -0.07883275    -1.27077175     3.25485883    -0.36686185     1.19074928     0.55238038
O       5.60960599     6.42867299     1.59303101    -0.47249926     1.39383488     1.81601326
O       5.80792903     2.92682502     1.65049998     1.08154832    -0.74440586    -1.00489008
O       1.74828701     6.67214803     1.62478800     2.31802339     0.18095508     1.07019998
O       2.13667697     3.35295998     1.57919001    -2.85360392    -1.93600489     0.20446474
