# total energy = -19074.64585249 eV

CRYSTAL
PRIMVEC
        5.17600016     0.00000000     0.00000000
        0.00000000     5.50899976     0.00000000
        0.00000000     0.00000000     9.26300011
PRIMCOORD
22 1
Ti      1.97877398     3.38342202     3.22417200    -0.34708234     1.64438666     1.09632831
Ti      3.46026099     2.19390199     5.90309499     0.67530307     0.36367728    -0.18874861
Ti      4.48592900     2.23813798     1.24549200     0.30176483     1.52365507    -2.65805628
Ti      0.71765399     3.31104200     8.03020000    -0.34438114     0.14374555     1.39370452
Ti      1.84654099     0.57427802     1.44646802     0.66102135    -0.69431253    -3.57142045
Ti      3.12396001     5.03500998     8.09333502     0.17147619    -0.76400590     1.32551267
Ti      0.54300301     0.19774301     6.11780797     0.78459787     0.82952792    -1.51565225
Ti      4.57898397     5.05202298     3.36716098    -0.65425549    -1.54165742     1.82370472
O       3.55435098     3.28986999     4.24948700     0.01302778     0.29582275     2.30664549
O       0.81940298     1.97835799     0.10172200     0.01932545    -0.81919851     0.34532165
O       4.22531100     3.73033300     9.07711802    -0.35763595    -0.50845666    -0.28485417
O       3.35340401     0.82106899     0.21233999     0.57525601     0.89982653    -0.45769921
O       1.51721499     4.66708400     9.17194299     0.42138700     0.60452494    -0.66765892
O       4.18246601     0.78215800     4.64166899    -0.30500957    -0.26387267     0.84185688
O       0.98703601     4.82570001     4.47269798     0.22626025    -1.03426982     0.16771852
O       0.37929700     3.59507699     2.25835102    -1.25828190    -1.11865809     0.39995581
O       0.07702101     2.02442398     6.56025302    -0.83056279     0.42030225     0.38982669
O       2.73371502     2.03951400     2.26190799     0.16967050    -1.14135528    -0.45363044
O       2.41184100     3.49979301     7.06310502    -0.25667204    -0.59042886    -0.88383504
O       0.08630399     0.65002001     2.07425501    -0.13763686     0.82109084     0.45396674
O       2.35640899     0.72920101     6.62621899    -0.05198001    -0.07578407     0.13960375
O       2.82462698     4.73000799     2.35686398     0.52440779     1.00544003    -0.00259116
