# total energy = -19072.29766098 eV

CRYSTAL
PRIMVEC
        5.93400000     0.00000000     0.00000000
        0.00000000     9.29699974     0.00000000
        0.00000000     0.00000000     4.64899994
PRIMCOORD
22 1
Ti      4.36807599     6.90923801     2.17112202     0.85391793    -0.17503665    -0.67637805
Ti      4.49160501     2.48938102     2.11769602     1.20870973    -0.84579504     0.90781495
Ti      1.46815301     7.00140899     2.65383899    -0.48361620    -0.32623969    -0.22412752
Ti      1.66812899     2.39168701     2.13399299    -0.28976446    -0.06088632     0.19794699
Ti      3.08930001     4.63170199     4.45806702    -1.19454757     0.38360925     0.19374298
Ti      2.94289899     0.05661101     0.07490001    -1.08670595     0.74538417     0.93216305
Ti      5.93210100     4.59642200     4.52948701     0.23673338    -0.50553872    -1.08488612
Ti      5.82214199     9.08921200     0.24772301     1.02867305     0.39436341     0.89484759
O       4.52318498     5.42518200     1.00665198    -0.79115188     0.51903522    -0.15959640
O       4.43476100     0.74430003     1.24550502    -0.11523663     0.92734429    -0.15191009
O       1.25401599     0.79226301     1.17291100     1.35172996     1.08840237    -0.19084483
O       4.31614301     8.30475901     4.25888698     0.14237720    -0.56610699    -3.07939134
O       4.40252400     4.08445699     3.41463601     0.90568119    -2.47159107    -0.73761686
O       1.29953000     8.04740900     4.06534400     1.09559863     2.37806665    -0.12717375
O       1.45093200     4.24452199     3.35826101     1.25261467    -1.25832406     0.69569809
O       3.09905999     6.24568900     3.35018698    -0.48127932    -0.49433822     0.32528555
O       2.88340000     1.63396197     3.40613102     0.31963349    -0.67209047    -0.27054623
O       5.77485201     6.14805500     3.26211998     0.23733065     0.12632246     0.04172156
O       2.82230299     7.88742798     1.44041698    -0.21181964    -0.71841843     1.58359393
O       3.17606402     2.90818999     1.01739999    -1.81421503     2.17081200    -0.59184451
O       0.10476598     7.91169700     1.59199801    -1.01343437    -1.04364433     0.83925183
O       0.16441098     3.09419500     1.06578298    -1.15122909     0.40466993     0.68224839
