# total energy = -19914.79137458 eV

CRYSTAL
PRIMVEC
        6.46191224     0.00000000     0.00000000
        1.02587886     6.80048508     0.00000000
        0.00000000     0.00000000    11.59824655
PRIMCOORD
24 1
Ti      2.95006723     4.02996110     4.30286678    -0.15675070    -1.53008514     0.71437074
Ti      4.53772380     2.77052380     7.29538003     0.15675070     1.53008514    -0.71437074
Ti      5.99092622     2.77052609     1.49621024     0.19049182     0.11541121    -0.45102026
Ti      1.49686482     4.02995906    10.10203670    -0.19049182    -0.11541121     0.45102026
Ti      2.43712794     0.62971868     1.49625675    -0.15675070    -1.53008514    -0.71437074
Ti      5.05066310     6.17076641    10.10199019     0.15675070     1.53008514     0.71437074
Ti      0.98392550     0.62971618     7.29533351    -0.19049182    -0.11541121    -0.45102026
Ti      6.50386554     6.17076891     4.30291330     0.19049182     0.11541121     0.45102026
O       2.40646538     2.39456632     5.91849649     1.68806638     1.78336075    -0.39382733
O       5.08132564     4.40591857     5.67975025    -1.68806638    -1.78336075     0.39382733
O       1.54699139     2.39459381     0.11941044    -1.05922959     0.66795768     0.52837398
O       5.94079970     4.40589114    11.47883604     1.05922959    -0.66795768    -0.52837398
O       4.56838634     1.00567595     0.11937282    -1.68806638    -1.78336075    -0.39382733
O       2.91940469     5.79480894    11.47887366     1.68806638     1.78336075     0.39382733
O       5.42786040     1.00564852     5.91853418     1.05922959    -0.66795768     0.52837398
O       2.05993057     5.79483644     5.67971263    -1.05922959     0.66795768    -0.52837398
O       0.85877388     4.13644052     3.13297580     0.48554170     0.82345986     1.15065754
O       6.62901714     2.66404431     8.46527101    -0.48554170    -0.82345986    -1.15065754
O       3.86761672     2.66398106     2.66618450     0.56869738     1.19957588     0.40992321
O       3.62017430     4.13650377     8.93206211    -0.56869738    -1.19957588    -0.40992321
O       0.34583458     0.73619790     2.66614741     0.48554170     0.82345986    -1.15065754
O       7.14195644     6.06428693     8.93209914    -0.48554170    -0.82345986     1.15065754
O       3.10723500     0.73626115     8.46530797    -0.56869738    -1.19957588     0.40992321
O       4.38055602     6.06422368     3.13293877     0.56869738     1.19957588    -0.40992321
