# total energy = -19514.35025926 eV

CRYSTAL
PRIMVEC
        5.93400000     0.00000000     0.00000000
        0.00000000     9.29699974     0.00000000
        0.00000000     0.00000000     4.64899994
PRIMCOORD
23 1
Ti      4.41177799     6.85103301     2.45228702     0.76428358     0.77130347    -1.52001798
Ti      4.50977198     2.42780199     2.33687198    -0.84970929    -1.10921880     0.33846195
Ti      1.55578799     7.03629997     2.42698102    -0.73983418     1.37045094    -1.88002192
Ti      1.42245099     2.28015698     2.25646699     1.73145607    -0.32989605     1.53351011
Ti      2.86658698     4.55211500     4.56611698    -0.32649320    -0.71916996     0.80207521
Ti      2.94327000     0.04102600     4.54059100     1.29356105     0.76170631    -0.07595839
Ti      5.87235900     4.81944598     4.60766898     0.24172338    -0.76066578     0.73304261
Ti      0.02477798     9.21727099     0.09332798    -1.42804676     1.50602989    -0.36889302
O       4.40111401     5.46081198     1.00843298     1.08991186     0.10507768    -0.81264271
O       4.49054702     1.03557300     0.90737399     0.39924773    -2.08350425     0.08385245
O       1.65138900     5.49361399     0.82458098    -2.96697213     1.91049414     1.25638751
O       1.58973498     1.02817102     0.72960700    -1.24526568    -1.36109444     1.96792180
O       4.45041798     8.26809697     3.65328701     0.59410708     0.69638021     1.76512108
O       4.19945900     3.62941498     3.89184102     4.33278377     0.03255198    -2.16900426
O       1.38179298     8.72628399     3.38118899     0.11056622    -2.15917647     1.60178475
O       1.51376201     3.76852700     3.59452400    -0.55433493     0.28076817     0.63291507
O       2.95133403     1.39210998     3.36124901     0.84221478     0.54566388    -1.65155618
O       0.17510798     5.93578402     3.08953703    -0.97305621    -1.05191660     2.36421328
O       5.85346901     1.61311800     3.55044798     0.55485198    -0.53835372    -2.34207170
O       3.09501401     7.82896400     1.47975099    -0.79740737    -0.69572740     0.00328536
O       3.06148799     3.22594802     1.41170298    -1.22127394    -0.55821267     0.98858825
O       0.00398100     7.58849802     1.46375100     0.63411424     2.27996128    -2.14525780
O       0.12608701     3.20521602     1.48291002    -1.48642831     1.10654768    -1.10573495
