# total energy = -19945.48896250 eV

CRYSTAL
PRIMVEC
        4.81145203     0.00000000     0.00000000
        1.01405280     5.01943207     0.00000000
        0.00000000     0.00000000     8.65525190
PRIMCOORD
24 1
Ti      2.34484662     2.97451080     3.21103683     2.18042844    -0.73030361     0.36807901
Ti      3.48065798     2.04492140     5.44421541    -2.18042844     0.73030361    -0.36807901
Ti      4.56269280     2.04492320     1.11655471    -3.51654152    -0.38534731     1.99302015
Ti      1.26281182     2.97450920     7.53869764     3.51654152     0.38534731    -1.99302015
Ti      1.83782033     0.46479495     1.11658941     2.18036468    -0.73084637    -0.37757435
Ti      3.98768428     4.55463739     7.53866293    -2.18036468     0.73084637     0.37757435
Ti      0.75578545     0.46479301     5.44418071     3.51694004     0.38508455     2.00603868
Ti      5.06971916     4.55463933     3.21107154    -3.51694004    -0.38508455    -2.00603868
O       1.87992009     1.76742739     4.41670893    -1.67391219    -0.95514101    -0.70809699
O       3.94558451     3.25200481     4.23854332     1.67391219     0.95514101     0.70809699
O       1.23996848     1.76744760     0.08911068     1.62308172    -1.31352104    -0.30236801
O       4.58553617     3.25198464     8.56614132    -1.62308172     1.31352104     0.30236801
O       3.43855821     0.74228881     0.08908258     1.67408908     0.95516492    -0.70816203
O       2.38694639     4.27714338     8.56616941    -1.67408908    -0.95516492     0.70816203
O       4.07850987     0.74226864     4.41673702    -1.62296551     1.31340534    -0.30218495
O       1.74699468     4.27716361     4.23851522     1.62296551    -1.31340534     0.30218495
O       0.79161553     3.05310307     2.33799955    -0.84277039    -1.31649684    -1.94518862
O       5.03388907     1.96632913     6.31725269     0.84277039     1.31649684     1.94518862
O       2.97778558     1.96628225     1.98965410     0.76387143    -2.02674738    -1.75514468
O       2.84771902     3.05314995     6.66559800    -0.76387143     2.02674738     1.75514468
O       0.28458923     0.54338707     1.98962645    -0.84270920    -1.31667630     1.94596020
O       5.54091538     4.47604518     6.66562565     0.84270920     1.31667630    -1.94596020
O       2.34069272     0.54343390     6.31728030    -0.76351765     2.02666973    -1.75584094
O       3.48481188     4.47599830     2.33797190     0.76351765    -2.02666973     1.75584094
