# total energy = -4984.91299046 eV

CRYSTAL
PRIMVEC
        3.80493723     0.00000000     0.00000000
        0.00000000     2.87048027     0.00000000
        0.00000000    -0.00007589     5.03261876
PRIMCOORD
6 1
Ti      1.90246856     1.43520204     2.51630943     0.00000000     0.00000000     0.00000000
Ti      0.00000000     0.00000000     0.00000000     0.00000000     0.00000000     0.00000000
O       1.90246856     0.55939948     0.98078330    -0.00000000    -1.91015269    -0.87533111
O       1.90246856     2.31100460     4.05183557    -0.00000000     1.91015269     0.87533111
O       0.00000000     0.87577239     3.49709377    -0.00000000     1.90954077    -0.87559105
O       0.00000000     1.99463169     1.53552510    -0.00000000    -1.90954077     0.87559105
