# total energy = -19886.64472456 eV

CRYSTAL
PRIMVEC
        7.72481061     0.00000000     0.00000000
        0.00002349     2.74051150     0.00000000
        0.00000000     0.00000000    12.28952214
PRIMCOORD
24 1
Ti      2.79988636     1.62402449     4.55932517    -0.46996801     0.51106351     0.79216721
Ti      4.92494796     1.11648675     7.73019734     0.46996801    -0.51106351    -0.79216721
Ti      6.66215990     1.11648764     1.58538699    -0.46922290    -0.51115067    -0.79155734
Ti      1.06267447     1.62402371    10.70413563     0.46922290     0.51115067     0.79155734
Ti      2.79987466     0.25376879     1.58543627    -0.46996801     0.51106351    -0.79216721
Ti      4.92495970     2.48674256    10.70408635     0.46996801    -0.51106351     0.79216721
Ti      1.06266272     0.25376785     7.73014806     0.46922290     0.51115067    -0.79155734
Ti      6.66217164     2.48674349     4.55937445    -0.46922290    -0.51115067     0.79155734
O       2.44495967     0.96498060     6.27124923     6.41732906    -0.47007831     1.54488545
O       5.27987470     1.77553069     6.01827329    -6.41732906     0.47007831    -1.54488545
O       1.41750748     0.96499173     0.12652754    -6.41839607    -0.47011405     1.54461162
O       6.30732694     1.77551956    12.16299460     6.41839607     0.47011405    -1.54461162
O       5.27986295     0.40527488     0.12648763    -6.41732906     0.47007831     1.54488545
O       2.44497141     2.33523636    12.16303452     6.41732906    -0.47007831    -1.54488545
O       6.30731520     0.40526381     6.27128909     6.41839607     0.47011405     1.54461162
O       1.41751907     2.33524748     6.01823343    -6.41839607    -0.47011405    -1.54461162
O       0.28067465     1.66693444     3.31970659     0.56186055    -0.07114297     4.22356301
O       7.44415971     1.07357680     8.96981587    -0.56186055     0.07114297    -4.22356301
O       4.14309018     1.07355139     2.82509371     0.56218374     0.07143041    -4.22328045
O       3.58174419     1.66695990     9.46442859    -0.56218374    -0.07143041     4.22328045
O       0.28066291     0.29667869     2.82505449     0.56186055    -0.07114297    -4.22356301
O       7.44417146     2.44383260     9.46446782    -0.56186055     0.07114297     4.22356301
O       3.58173250     0.29670409     8.96985505    -0.56218374    -0.07143041    -4.22328045
O       4.14310187     2.44380715     3.31966736     0.56218374     0.07143041     4.22328045
