# total energy = -4990.05444171 eV

CRYSTAL
PRIMVEC
        2.92596109     0.00000000     0.00000000
        0.45731066     4.56167684     0.00000000
       -0.00000305    -0.00005949     4.59029802
PRIMCOORD
6 1
Ti      1.69163440     2.28080867     2.29514901     0.00000000     0.00000000     0.00000000
Ti      0.00000000     0.00000000     0.00000000     0.00000000     0.00000000     0.00000000
O       1.55210306     0.88899207     0.89458147    -0.69123234     0.30049959     0.29344937
O       1.83116579     3.67262527     3.69571651     0.69123234    -0.30049959    -0.29344937
O       0.13953009     1.39179248     3.18973141     0.69121897    -0.30027102     0.29317040
O       0.31777772     3.16982475     1.40056656    -0.69121897     0.30027102    -0.29317040
