# total energy = -19073.07196153 eV

CRYSTAL
PRIMVEC
        5.93400000     0.00000000     0.00000000
        0.00000000     9.29699974     0.00000000
        0.00000000     0.00000000     4.64899994
PRIMCOORD
22 1
Ti      4.39928898     7.02773799     2.16562302    -0.44063094    -0.55183556    -0.35930614
Ti      4.51198601     2.34955699     2.15320699     0.20925728    -0.69880810     1.11256534
Ti      1.42562801     6.98241899     2.64565902     0.40560787    -0.89989878    -0.65868988
Ti      1.64629101     2.41645500     2.10879500    -0.08133379     0.09233401     0.85133448
Ti      3.06909798     4.61473900     4.39844499    -0.61002942     0.34390137    -0.05834452
Ti      2.92186399     0.00459897     0.03739701    -0.23542058     0.05150076     0.23819068
Ti      5.90256698     4.68294899     4.63967902    -0.12561258    -0.17211408    -0.77978040
Ti      5.89972001     9.13984400     0.27258899    -0.58206249    -0.44748087    -0.13681025
O       4.44580498     5.51212402     0.96174901    -0.10831419     0.64564332    -0.47892368
O       4.39328001     0.71884798     1.13850199     0.47400387     1.59013045     0.27151168
O       1.30550599     0.86599402     1.04205103     1.11486571     1.16247510    -0.00566363
O       4.37436097     8.32733302     4.16923298     0.02385110    -0.97858794    -2.59476239
O       4.51276400     4.05341201     3.51993800     0.58480869    -2.74501360    -0.71786281
O       1.33666199     7.97724602     4.06545698     0.80225159     2.61966764     1.23326814
O       1.51946199     4.04074298     3.54483801    -0.15021779    -0.82753146     0.20992731
O       3.04997002     6.05468099     3.02493099    -0.75911849    -0.47991458     1.44009573
O       2.93309202     1.53727801     3.28732602     0.24345965    -0.41441699     0.53137266
O       5.72503801     6.10425601     3.20613499     1.02764203    -0.00094025     0.24272637
O       2.81085101     8.01312302     1.56894599    -0.00990826    -0.35489002     0.46993844
O       3.18466399     2.99312400     1.19374900    -1.39256038     2.21451948    -1.51198020
O       0.08437700     7.96832801     1.66127302    -0.34155730    -0.19372935    -0.03998735
O       0.04796002     3.14813198     1.16868700    -0.04898133     0.04498944     0.74118015
