# total energy = -4984.75850932 eV

CRYSTAL
PRIMVEC
        3.34508127     0.00000000     0.00000000
        2.24490994     4.73613618     0.00000000
       -0.00001467    -0.00007043     5.38607591
PRIMCOORD
6 1
Ti      2.79498816     2.36803290     2.69303784     0.00000000     0.00000000     0.00000000
Ti      0.00000000     0.00000000     0.00000000     0.00000000     0.00000000     0.00000000
O       2.11003758     0.92298952     1.04966683     0.59469175     0.22104451    -0.45505355
O       3.47993867     3.81307630     4.33640884    -0.59469175    -0.22104451     0.45505355
O       0.68494444     1.44501496     3.74270579    -0.59489976    -0.21981835    -0.45422488
O       1.55995069     3.29105071     1.64336989     0.59489976     0.21981835     0.45422488
