# total energy = -19911.62259485 eV

CRYSTAL
PRIMVEC
        6.52797006     0.00000000     0.00000000
        1.37582299     6.81014838     0.00000000
        0.00000000     0.00000000    11.74307150
PRIMCOORD
24 1
Ti      3.18138649     4.03568763     4.35659592    -0.21700762    -1.68171601     0.69381347
Ti      4.72240624     2.77446092     7.38647604     0.21700762     1.68171601    -0.69381347
Ti      6.19046429     2.77446336     1.51489314     0.21278869    -0.14208821    -0.37559717
Ti      1.71332847     4.03568545    10.22817895    -0.21278869     0.14208821     0.37559717
Ti      2.49347516     0.63061369     1.51494023    -0.21700762    -1.68171601    -0.69381347
Ti      5.41031759     6.17953506    10.22813187     0.21700762     1.68171601     0.69381347
Ti      1.02541702     0.63061105     7.38642896    -0.21278869     0.14208821    -0.37559717
Ti      6.87837573     6.17953769     4.35664301     0.21278869    -0.14208821     0.37559717
O       2.55059428     2.39796905     5.99239968     1.74434399     1.88749253    -0.49403123
O       5.35319844     4.41217950     5.75067228    -1.74434399    -1.88749253     0.49403123
O       1.68233562     2.39799647     0.12090152    -0.92856119     0.42065192     0.72067508
O       6.22145718     4.41215213    11.62217011     0.92856119    -0.42065192    -0.72067508
O       4.66528709     1.00710536     0.12086340    -1.74434399    -1.88749253    -0.49403123
O       3.23850564     5.80304319    11.62220823     1.74434399     1.88749253     0.49403123
O       5.53354583     1.00707800     5.99243780     0.92856119    -0.42065192     0.72067508
O       2.37024684     5.80307062     5.75063416    -0.92856119     0.42065192    -0.72067508
O       1.07402971     4.14231821     3.17209669     0.50082768     1.21506935     1.43598787
O       6.82976302     2.66783033     8.57097527    -0.50082768    -1.21506935    -1.43598787
O       4.04013070     2.66776673     2.69947665     0.58347223     1.44499625     0.65062432
O       3.86366203     4.14238182     9.04359512    -0.58347223    -1.44499625    -0.65062432
O       0.38611836     0.73724408     2.69943912     0.50082768     1.21506935    -1.43598787
O       7.51767438     6.07290454     9.04363264    -0.50082768    -1.21506935     1.43598787
O       3.17575066     0.73730762     8.57101273    -0.58347223    -1.44499625     0.65062432
O       4.72804206     6.07284093     3.17205917     0.58347223     1.44499625    -0.65062432
