# total energy = -19959.52006937 eV

CRYSTAL
PRIMVEC
        7.60600008     0.00000000     0.00000000
        0.00000000     7.60600008     0.00000000
       -1.89786986    -1.89786986     4.85670466
PRIMCOORD
24 1
Ti      3.88816202     6.63073202     1.04050101    -0.62233832    -0.48287984     2.55381421
Ti      3.77119099     2.65219298     1.21547998     1.03000256     0.58336733     0.96694546
Ti     -0.06877399     6.72774101     1.16746799     0.10854559     1.66014264     0.29286727
Ti      0.02928901     2.96906702     1.26194698    -1.53321932    -2.00298961    -0.31957307
Ti      5.63599024     2.93693622     3.72111081    -1.06402316     0.21833071    -1.91067591
Ti      5.71894020    -0.79118878     3.68912083    -1.24093620    -0.58986888    -0.17472941
Ti      1.79846122     2.70142621     3.71932781     2.13532999     0.08608571    -0.59191496
Ti      1.97672923    -0.99473178     3.62831784     1.70426793     0.19603898    -1.51380980
O       3.97533402     4.71187800     0.72220100    -0.92678379    -1.08049673     0.55020728
O       4.16982301     0.90141101     0.72004799    -1.18680186     0.51025747    -0.23554862
O      -0.18037499     4.87592999     0.82796501     0.96939881    -0.97278701     0.23888488
O      -0.27343499     1.07602198     0.73727202     1.16804463    -1.25510941     0.58462845
O       5.39748920     4.89076224     4.05644382     1.25480962    -1.22346581     0.22332328
O       5.43540322     1.05082923     4.18375180     1.44058861     0.91916792    -0.42189530
O       2.22478223     4.73655020     4.07775882    -1.20786795    -0.23435177    -1.87824426
O       2.04590122     0.88419121     4.07808781    -1.12500666     0.17448747     0.26245265
O       3.83027320     2.85328124     3.15212483    -0.71769132     0.04861778    -0.19742403
O       3.80905325    -0.80699779     3.20843183    -1.32677431    -0.25253385    -0.54776036
O       0.02270821     2.84273320     3.23517682    -0.54451177     0.74501933     1.10854054
O      -0.02509877    -0.87504978     3.16076582     1.39145326    -0.04153053     0.61787129
O       5.65985999     6.69931397     1.74540099     0.97559389    -0.25435933    -0.84518440
O       5.75881402     2.69988302     1.67469201    -0.24668021     1.17760836     0.88656298
O       1.99356199     6.67706900     1.36999302    -1.05515439    -0.06026745     0.86273399
O       1.85766298     2.23805998     1.66932901     0.61975488     2.13151627    -0.51207215
