# total energy = -19955.48743230 eV

CRYSTAL
PRIMVEC
        5.37251558     0.00000000     0.00000000
        1.40753062     5.54203631     0.00000000
        0.00000000     0.00000000     9.69281261
PRIMCOORD
24 1
Ti      2.78137990     3.28420575     3.59596453     0.88699570    -1.96891554     0.95104936
Ti      3.99866646     2.25783093     6.09684863    -0.88699570     1.96891554    -0.95104936
Ti      5.20687753     2.25783284     1.25040335    -1.75440189    -0.48498943     0.63661258
Ti      1.57316885     3.28420405     8.44240991     1.75440189     0.48498943    -0.63661258
Ti      2.07761470     0.51318763     1.25044221     0.88699570    -1.96891554    -0.95104936
Ti      4.70243168     5.02884925     8.44237105    -0.88699570     1.96891554     0.95104936
Ti      0.86940355     0.51318551     6.09680977     1.75440189     0.48498943     0.63661258
Ti      5.91064282     5.02885133     3.59600339    -1.75440189    -0.48498943    -0.63661258
O       2.19605057     1.95144532     4.94616831     0.83415128     1.28385667    -0.71645796
O       4.58399573     3.59059136     4.74664484    -0.83415128    -1.28385667     0.71645796
O       1.48147527     1.95146768     0.09979297     0.03273401    -0.38044936     0.63420268
O       5.29857114     3.59056909     9.59301992    -0.03273401     0.38044936    -0.63420268
O       3.88023052     0.81957309     0.09976152    -0.83415128    -1.28385667    -0.71645796
O       2.89981584     4.72246359     9.59305137     0.83415128     1.28385667     0.71645796
O       4.59480592     0.81955076     4.94619976    -0.03273401     0.38044936     0.63420268
O       2.18524038     4.72248597     4.74661339     0.03273401    -0.38044936    -0.63420268
O       1.05133583     3.37098077     2.61827065     0.08934844     0.57800426     0.46195902
O       5.72871047     2.17105591     7.07454250    -0.08934844    -0.57800426    -0.46195902
O       3.43284204     2.17100423     2.22816677     1.03066694     0.35012782    -0.31353869
O       3.34720432     3.37103250     7.46464622    -1.03066694    -0.35012782     0.31353869
O       0.34757061     0.59996249     2.22813582     0.08934844     0.57800426    -0.46195902
O       6.43247575     4.94207423     7.46467718    -0.08934844    -0.57800426     0.46195902
O       2.64343910     0.60001417     7.07457341    -1.03066694    -0.35012782    -0.31353869
O       4.13660725     4.94202250     2.61823969     1.03066694     0.35012782     0.31353869
