# total energy = -19074.32343391 eV

CRYSTAL
PRIMVEC
        5.17600016     0.00000000     0.00000000
        0.00000000     5.50899976     0.00000000
        0.00000000     0.00000000     9.26300011
PRIMCOORD
22 1
Ti      1.83379698     3.41052002     3.42680100     0.38849769     1.37644573    -1.52429964
Ti      3.71728899     2.23285002     5.85674102    -2.55079599     0.62263220     0.14993034
Ti      4.29106699     2.32907598     1.31018302     0.78182417     0.07869018    -1.63424417
Ti      0.73527099     3.19212200     8.02777801     0.32401131     1.00836981     0.18346653
Ti      1.78449200     0.57491198     1.17810398     0.04092838    -0.33475853    -0.64757782
Ti      3.24169602     5.02630602     8.03331098    -0.13018529    -0.33296570     0.03549332
Ti      0.73307999     0.09244801     6.08162400     1.43236005     0.92913609    -0.89816200
Ti      4.43957598     5.02567598     3.40108902    -0.21829342    -0.17191611    -1.04844664
O       3.46751500     3.55696300     4.33247300     1.00130159    -1.87691500     2.16991751
O       0.85242999     2.04611898     0.12040000    -0.09854142    -1.75286720     1.17014985
O       4.22547600     3.71149498     9.00972100     0.73564585    -0.55295682     0.22644537
O       3.37555098     0.86164498     0.15568897     0.97080186     0.55082769    -0.37387736
O       1.78635999     4.59587198     9.00565301    -2.18461343     0.56625226     0.97902528
O       4.35027002     0.56286399     4.90893001    -0.84690781     1.59034282     0.98720422
O       1.14824102     4.98448499     4.28780700    -0.46974972    -1.09250379     1.40904784
O       0.11952998     3.52890501     2.48786302    -0.04703552    -0.41588792    -0.32561054
O       0.02457901     1.81206002     6.88570301    -0.37773530    -0.92153822    -0.45838364
O       2.57856400     2.09356702     2.08156697     0.45676770     0.35489413     1.30079485
O       2.22734700     3.47285800     6.82580401     0.59244718     0.31986592    -0.35588863
O       0.09203202     0.90194399     2.25475399    -0.40894722    -0.61835157    -0.30324425
O       2.43047301     0.78947800     6.78428301     0.26085317    -0.04841492    -1.03802672
O       2.70687901     4.74846802     2.32267002     0.34736594     0.72161945    -0.00371396
