# total energy = -19934.03654603 eV

CRYSTAL
PRIMVEC
        6.06319664     0.00000000     0.00000000
        0.64373134     6.42088650     0.00000000
        0.00000000     0.00000000    10.86541033
PRIMCOORD
24 1
Ti      2.57909182     3.80501143     4.03098983    -0.01062123    -1.33198903     0.74501367
Ti      4.12783635     2.61587512     6.83442087     0.01062123     1.33198903    -0.74501367
Ti      5.49137258     2.61587730     1.40167212     0.03760137     0.28580882    -0.44136293
Ti      1.21555561     3.80500956     9.46373877    -0.03760137    -0.28580882     0.44136293
Ti      2.25722628     0.59456824     1.40171570    -0.01062123    -1.33198903    -0.74501367
Ti      4.44970191     5.82631856     9.46369518     0.01062123     1.33198903     0.74501367
Ti      0.89368998     0.59456587     6.83437734    -0.03760137    -0.28580882    -0.44136293
Ti      5.81323814     5.82632087     4.03103342     0.03760137     0.28580882     0.44136293
O       2.14570884     2.26090330     5.54453586     1.54900795     1.59447947    -0.27370277
O       4.56121934     4.15998331     5.32087484    -1.54900795    -1.59447947     0.27370277
O       1.33926514     2.26092927     0.11186549    -1.10396474     0.80743648     0.38111322
O       5.36766311     4.15995740    10.75354496     1.10396474    -0.80743648    -0.38111322
O       4.23935378     0.94953987     0.11183027    -1.54900795    -1.59447947    -0.27370277
O       2.46757440     5.47134675    10.75358019     1.54900795     1.59447947     0.27370277
O       5.04579755     0.94951396     5.54457116     1.10396474    -0.80743648     0.38111322
O       1.66113057     5.47137266     5.32083961    -1.10396474     0.80743648    -0.38111322
O       0.61184383     3.90554729     2.93501847     0.42311915     0.41728711     0.80872306
O       6.09508429     2.51533932     7.93039223    -0.42311915    -0.41728711    -0.80872306
O       3.50407188     2.51527952     2.49772143     0.56934889     0.87012771     0.11955737
O       3.20285630     3.90560703     8.36768915    -0.56934889    -0.87012771    -0.11955737
O       0.28997827     0.69510385     2.49768669     0.42311915     0.41728711    -0.80872306
O       6.41694984     5.72578270     8.36772382    -0.42311915    -0.41728711     0.80872306
O       2.88099074     0.69516365     7.93042690    -0.56934889    -0.87012771     0.11955737
O       3.82593744     5.72572296     2.93498380     0.56934889     0.87012771    -0.11955737
