# total energy = -19074.80732165 eV

CRYSTAL
PRIMVEC
        5.17600016     0.00000000     0.00000000
        0.00000000     5.50899976     0.00000000
        0.00000000     0.00000000     9.26300011
PRIMCOORD
22 1
Ti      1.88080300     3.33735401     3.24909799    -0.21841838     0.67861208     0.23836166
Ti      3.56971998     2.23629999     5.87566202     0.21062356     0.09634467     0.53344188
Ti      4.37837198     2.26338699     1.30737801     0.98041445    -0.09541753    -2.70007327
Ti      0.72977099     3.31426802     8.12710701    -0.80633425    -0.57743373     1.23504760
Ti      1.83311497     0.55815299     1.29793400    -0.11747452    -0.19276107    -2.70151771
Ti      3.23946300     4.98157202     7.91635402     0.51619363     0.40833556     1.76043576
Ti      0.56875600     0.19040898     5.98010499     0.80252593     1.00726295    -0.40503554
Ti      4.48422701     4.99320599     3.43462801     0.10176790    -0.45060271    -0.13605383
O       3.42881098     3.49178497     4.38516598     0.26612059    -0.49721066     1.55974257
O       0.80669701     2.04410900     0.21548801     0.85789774    -0.44681881    -0.05265107
O       4.26423898     3.77967899     9.05596998    -0.01806766     0.09854759    -0.06846233
O       3.50650298     0.89858398     0.22177501    -0.40040524     0.09417903    -1.15705213
O       1.73347000     4.83713002     9.07121198    -1.54153170    -0.23289318     0.25397238
O       4.61493897     1.03055100     4.63548201    -0.79200188    -0.74381245     0.62140604
O       0.89428299     4.47836600     4.46033201    -0.55147715     0.38885430     1.84203618
O       0.24981299     3.61229001     2.33841802    -1.12753560    -0.54966735    -0.27436920
O       5.15563800     1.89756501     6.89723399    -0.55298793     0.20901174    -0.22834104
O       2.72367102     1.98160698     2.17070598    -0.60555801     1.01331173     1.80785849
O       2.41156201     3.36480000     7.29944098     0.75587864    -0.42253936    -2.29185315
O       0.06285102     0.74384202     2.14431999     0.49762409    -0.36460930     0.77461273
O       2.33797801     0.70751501     6.42994497     0.78691290    -0.14870392     0.04523318
O       2.64616798     4.82661300     2.51889302     0.95583315     0.72801070    -0.65673918
