# total energy = -39036.27083165 eV

CRYSTAL
PRIMVEC
        7.60600008     0.00000000     0.00000000
        0.00000000     7.60600008     0.00000000
       -3.79573973    -3.79573973     9.71340985
PRIMCOORD
46 1
Ti      1.73274545     4.67269343     6.10561965     0.46894856     1.68584263     0.63853808
Ti      3.72571201     6.63175302     1.24198398     0.07888533     1.17383501    -0.00166839
Ti      1.91959344     0.72106544     6.13532660    -0.22343846    -0.54269734    -1.37883866
Ti      3.84829301     2.74906100     1.23468297     2.16199671    -1.23250838     0.58634826
Ti     -2.04940056     4.84815046     6.05616163     0.05810670    -0.95346028    -0.27478907
Ti     -0.06020402     6.64875199     1.11873902    -0.38725482     0.43314337    -0.10703378
Ti     -1.91246156     0.92549048     6.13942264     0.70656512     1.29038933    -0.78106543
Ti      0.10869200     2.85248901     1.18705999    -1.47997715     0.04651204     0.51048244
Ti      3.81235743     0.95656747     8.43791863     0.19180925     1.22054915     0.38998456
Ti      5.86940799     2.80701802     3.69407600    -0.08775821    -0.11065184    -0.38764948
Ti      3.76316945    -2.72064153     8.46917062    -0.98431250    -1.17085562     0.45583850
Ti      5.73269500    -0.93600703     3.60621701     0.41173558     0.10012779    -0.16274446
Ti      0.02907046     0.94049445     8.40136862    -0.57940603     1.27896515     1.59471344
Ti      2.08267301     2.91898902     3.44197199    -0.64851910    -0.99493553     2.01386204
Ti     -0.10806053    -2.84123357     8.51118164     0.72356063    -0.45231661     0.97765257
Ti      1.91141903    -0.98121998     3.67043601    -0.86657110     0.68313928     0.38685270
O       1.61907246    -1.07497453     5.85594165     1.01671793     1.40883419    -2.14060281
O       3.88136998     0.88614599     0.84393601    -0.41086809     0.88560216    -0.78892221
O      -1.89301953     2.77994246     5.66823962     0.01644632     1.00685466    -0.03579645
O       0.02011599     4.75050799     0.65346897     0.02582905     0.31057344     0.40918839
O      -1.78572757    -0.89968054     5.55560662    -0.41678986    -0.81932424     1.40310859
O       0.10501999     1.00643798     0.80254202    -0.62248230    -0.02436353    -0.38081420
O       3.51683046     3.00474045     8.85442362     0.04226150    -1.23893563     0.54268295
O       5.58277199     4.74519500     4.14233702     0.02642709    -0.01921026    -0.21388064
O       4.05075146    -0.85517652     8.76720865    -0.14878311    -0.47558021     0.54140151
O       5.93414299     0.96431600     4.06653201     0.05278785    -0.51561565    -0.24612203
O       0.10049944     2.83740846     9.01829960    -0.16103494    -0.37798444    -0.69853171
O       1.88913299     4.72300602     4.06881699     0.96778416    -0.66855906     0.05066001
O      -0.22086054    -0.79516555     9.12597061    -0.10169102    -0.43328221    -1.23622260
O       1.91916697     1.02013499     4.16814002    -0.17601547    -0.06747631     0.47710616
O       1.86705344     0.93368447     8.13166365     1.86102841    -0.21009623    -0.02968648
O       3.95975002     2.64586000     3.25275302    -1.35180375     0.94142031    -0.03830225
O       1.80793746    -2.45904154     8.06451762    -0.88954572    -1.41880287     0.71038758
O       3.80456101    -0.75944503     3.25229898    -1.12751606    -0.90595116     0.22397608
O      -1.87711855     1.27991747     8.06584564    -0.87165135    -0.69335145    -0.19580989
O       0.12205098     2.98297697     3.16952100    -0.56565242    -0.07413393    -0.13780784
O      -2.08376057     4.42102446     8.04672864     1.99204776     1.12808890    -0.13104249
O       0.01347100    -1.19895002     3.13696999    -0.36670938     0.70252875     0.41819574
O       3.64901745     4.91300843     6.52441163     0.81279183    -0.53092066    -1.12075020
O       5.62021001     6.64055302     1.67383500     0.89947044    -0.53591271    -0.63701341
O       3.84287746     0.79847545     6.40082065    -0.83311667     0.22797877     0.51164946
O       5.76109700     2.77575100     1.65246497     0.20977330     0.63182878    -0.57915020
O      -0.09759055     4.93314045     6.57104062    -0.92804877    -1.41933689     0.03425508
O       1.78961200     6.67518598     1.58189601     1.74648855    -0.43749676     0.43132406
O       0.08054147     0.92905544     6.57141162    -1.07415382     0.35840703    -1.53545875
O       1.94808900     2.66265699     1.57355300     0.83163828     0.80913932    -0.06850553
