# total energy = -19944.31880798 eV

CRYSTAL
PRIMVEC
        5.62134457     0.00000000     0.00000000
        2.30110732     5.52258320     0.00000000
        0.00000000     0.00000000    10.27664993
PRIMCOORD
24 1
Ti      3.40110115     3.27267779     3.81256383     1.17602559    -3.09923333     1.00419536
Ti      4.52135083     2.24990556     6.46408622    -1.17602559     3.09923333    -1.00419536
Ti      5.78552068     2.24990744     1.32572011    -2.78043981    -0.54338023     0.80623989
Ti      2.13693134     3.27267614     8.95092999     2.78043981     0.54338023    -0.80623989
Ti      2.25054760     0.51138617     1.32576131     1.17602559    -3.09923333    -1.00419536
Ti      5.67190441     5.01119735     8.95088879    -1.17602559     3.09923333     1.00419536
Ti      0.98637766     0.51138414     6.46404497     2.78043981     0.54338023     0.80623989
Ti      6.93607435     5.01119938     3.81260502    -2.78043981    -0.54338023    -0.80623989
O       2.58945004     1.94459548     5.24409582     1.29822734     1.88886575    -1.02607957
O       5.33300188     3.57798788     5.03255423    -1.29822734    -1.88886575     1.02607957
O       1.84178243     1.94461780     0.10580387     0.35844688    -0.82427798     1.02802358
O       6.08066963     3.57796566    10.17084583    -0.35844688     0.82427798    -1.02802358
O       4.18244831     0.81669615     0.10577051    -1.29822734    -1.88886575    -1.02607957
O       3.74000367     4.70588721    10.17087920     1.29822734     1.88886575     1.02607957
O       4.93011599     0.81667388     5.24412912    -0.35844688     0.82427798     1.02802358
O       2.99233589     4.70590955     5.03252087     0.35844688    -0.82427798    -1.02802358
O       1.60390039     3.35914832     2.77597954     0.50142341     1.55600033     1.45663127
O       6.31855153     2.16343504     7.50067050    -0.50142341    -1.55600033    -1.45663127
O       3.91634187     2.16338365     2.36237816     1.33734412     0.97151560     0.16595654
O       4.00611005     3.35919972     7.91427171    -1.33734412    -0.97151560    -0.16595654
O       0.45334681     0.59785654     2.36234531     0.50142341     1.55600033    -1.45663127
O       7.46910517     4.92472682     7.91430451    -0.50142341    -1.55600033     1.45663127
O       2.85555648     0.59790798     7.50070324    -1.33734412    -0.97151560     0.16595654
O       5.06689545     4.92467538     2.77594674     1.33734412     0.97151560    -0.16595654
