# total energy = -19922.77837839 eV

CRYSTAL
PRIMVEC
        7.63682270     0.00000000     0.00000000
        0.00002687     4.37655556     0.00000000
        0.00000000     0.00000000    11.55387445
PRIMCOORD
24 1
Ti      2.76799694     2.59354291     4.28640517     0.34585927    -0.08555400     2.13730614
Ti      4.86885281     1.78301301     7.26746976    -0.34585927     0.08555400    -2.13730614
Ti      6.58627742     1.78301456     1.49048617     0.34453438     0.08598775    -2.13744833
Ti      1.05057234     2.59354148    10.06338888    -0.34453438    -0.08598775     2.13744833
Ti      2.76798363     0.40526519     1.49053247     0.34585927    -0.08555400    -2.13730614
Ti      4.86886613     3.97129085    10.06334257    -0.34585927     0.08555400     2.13730614
Ti      1.05055902     0.40526346     7.26742345    -0.34453438    -0.08598775    -2.13744833
Ti      6.58629073     3.97129252     4.28645148     0.34453438     0.08598775     2.13744833
O       2.41711214     1.54105968     5.89585388     1.31540463     0.98279221    -1.47110607
O       5.21973761     2.83549618     5.65802105    -1.31540463    -0.98279221     1.47110607
O       1.40136291     1.54107732     0.11895360    -1.31489735     0.98266854    -1.47156398
O       6.23548690     2.83547860    11.43492097     1.31489735    -0.98266854     1.47156398
O       5.21972430     0.64721840     0.11891612    -1.31540463    -0.98279221    -1.47110607
O       2.41712546     3.72933752    11.43495845     1.31540463     0.98279221     1.47110607
O       6.23547359     0.64720076     5.89589136     1.31489735    -0.98266854    -1.47156398
O       1.40137605     3.72935515     5.65798351    -1.31489735     0.98266854     1.47156398
O       0.27747977     2.66206922     3.12098984    -1.96696715     0.68333622     0.51645280
O       7.35936999     1.71448670     8.43288509     1.96696715    -0.68333622    -0.51645280
O       4.09590054     1.71444578     2.65598432    -1.96509616    -0.68328146    -0.51676185
O       3.54094921     2.66211014     8.89789036     1.96509616     0.68328146     0.51676185
O       0.27746645     0.47379138     2.65594745    -1.96696715     0.68333622    -0.51645280
O       7.35938331     3.90276454     8.89792724     1.96696715    -0.68333622     0.51645280
O       3.54093590     0.47383230     8.43292191     1.96509616     0.68328146    -0.51676185
O       4.09591386     3.90272362     3.12095296    -1.96509616    -0.68328146     0.51676185
