# total energy = -19929.11476109 eV

CRYSTAL
PRIMVEC
        6.12139105     0.00000000     0.00000000
        2.21252612     6.12781410     0.00000000
        0.00000000     0.00000000    11.13287408
PRIMCOORD
24 1
Ti      3.52985085     3.63133686     4.13021690     0.09022056    -2.38881566     0.77359586
Ti      4.80406653     2.49647707     7.00265730    -0.09022056     2.38881566    -0.77359586
Ti      6.18069053     2.49647915     1.43617575    -0.66004022    -0.88508357     0.21218294
Ti      2.15322689     3.63133496     9.69669857     0.66004022     0.88508357    -0.21218294
Ti      2.42358795     0.56742998     1.43622039     0.09022056    -2.38881566    -0.77359586
Ti      5.91032946     5.56038408     9.69665394    -0.09022056     2.38881566     0.77359586
Ti      1.04696386     0.56742772     7.00261267     0.66004022     0.88508357     0.21218294
Ti      7.28695356     5.56038639     4.13026153    -0.66004022    -0.88508357    -0.21218294
O       2.71652703     2.15770744     5.68102043     1.80010944     2.12794501    -0.81784482
O       5.61739036     3.97010649     5.45185377    -1.80010944    -2.12794501     0.81784482
O       1.90234943     2.15773216     0.11461921    -0.32176262    -0.51187443     1.34306997
O       6.43156803     3.97008182    11.01825469     0.32176262     0.51187443    -1.34306997
O       4.51112743     0.90619948     0.11458308    -1.80010944    -2.12794501    -0.81784482
O       3.82278995     5.22161445    11.01829081     1.80010944     2.12794501     0.81784482
O       5.32530509     0.90617475     5.68105656     0.32176262     0.51187443     1.34306997
O       3.00861223     5.22163919     5.45181765    -0.32176262    -0.51187443    -1.34306997
O       1.56818806     3.72728380     3.00726703     0.55978130     2.22085186     2.14154564
O       6.76572933     2.40053013     8.12560717    -0.55978130    -2.22085186    -2.14154564
O       4.14983377     2.40047305     2.55920545     0.85839191     1.79926894     1.04675048
O       4.18408362     3.72734088     8.57366856    -0.85839191    -1.79926894    -1.04675048
O       0.46192513     0.66337679     2.55916988     0.55978130     2.22085186    -2.14154564
O       7.87199225     5.46443714     8.57370414    -0.55978130    -2.22085186     2.14154564
O       3.07782069     0.66343387     8.12564262    -0.85839191    -1.79926894     1.04675048
O       5.25609669     5.46438006     3.00723152     0.85839191     1.79926894    -1.04675048
