# total energy = -19930.56778270 eV

CRYSTAL
PRIMVEC
        6.02134793     0.00000000     0.00000000
        2.74490819     5.79092376     0.00000000
        0.00000000     0.00000000    11.07468184
PRIMCOORD
24 1
Ti      3.80907900     3.43169603     4.10862795     0.63188098    -2.91287919     0.72599778
Ti      4.95717691     2.35922766     6.96605395    -0.63188098     2.91287919    -0.72599778
Ti      6.31130258     2.35922962     1.42866877    -1.79701640    -1.01122399     0.63081680
Ti      2.45495345     3.43169429     9.64601331     1.79701640     1.01122399    -0.63081680
Ti      2.43662505     0.53623424     1.42871315     0.63188098    -2.91287919    -0.72599778
Ti      6.32963090     5.25468962     9.64596893    -0.63188098     2.91287919     0.72599778
Ti      1.08249935     0.53623210     6.96600957     1.79701640     1.01122399     0.63081680
Ti      7.68375666     5.25469175     4.10867239    -1.79701640    -1.01122399    -0.63081680
O       2.87232341     2.03908268     5.65132538     1.69857114     2.10481510    -1.01847373
O       5.89393250     3.75184101     5.42335658    -1.69857114    -2.10481510     1.01847373
O       2.07145442     2.03910607     0.11402007     0.30644476    -1.08458839     1.53651702
O       6.69480158     3.75181772    10.96066158    -0.30644476     1.08458839    -1.53651702
O       4.52147853     0.85637910     0.11398410    -1.69857114    -2.10481510    -1.01847373
O       4.24477740     4.93454464    10.96069750     1.69857114     2.10481510     1.01847373
O       5.32234759     0.85635576     5.65136129    -0.30644476     1.08458839     1.53651702
O       3.44390828     4.93456800     5.42332060     0.30644476    -1.08458839    -1.53651702
O       1.88837821     3.52236814     2.99154786     0.65477151     2.61588889     2.45340308
O       6.87787764     2.26855556     8.08313410    -0.65477151    -2.61588889    -2.45340308
O       4.30472915     2.26850167     2.54582831     0.98612359     1.75756435     1.20990709
O       4.46152676     3.52242202     8.52885340    -0.98612359    -1.75756435    -1.20990709
O       0.51592422     0.62690617     2.54579294     0.65477151     2.61588889    -2.45340308
O       8.25033163     5.16401753     8.52888878    -0.65477151    -2.61588889     2.45340308
O       3.08907277     0.62696005     8.08316935    -0.98612359    -1.75756435     1.20990709
O       5.67718314     5.16396364     2.99151249     0.98612359     1.75756435    -1.20990709
