# total energy = -19924.84765690 eV

CRYSTAL
PRIMVEC
        7.12701125     0.00000000     0.00000000
        0.00002386     3.65217915     0.00000000
        0.00000000     0.00000000    10.76778148
PRIMCOORD
24 1
Ti      2.58321304     2.16427805     3.99477013    -0.22381358     0.64480077     0.81571209
Ti      4.54382223     1.48790126     6.77301146     0.22381358    -0.64480077    -0.81571209
Ti      6.14659668     1.48790256     1.38907764    -0.22302786    -0.64462491    -0.81498370
Ti      0.98043865     2.16427692     9.37870410     0.22302786     0.64462491     0.81498370
Ti      2.58320117     0.33818853     1.38912083    -0.22381358     0.64480077    -0.81571209
Ti      4.54383416     3.31399089     9.37866092     0.22381358    -0.64480077     0.81571209
Ti      0.98042672     0.33818713     6.77296828     0.22302786     0.64462491    -0.81498370
Ti      6.14660855     3.31399229     3.99481331    -0.22302786    -0.64462491     0.81498370
O       2.25575255     1.28599442     5.49471648     3.37477033    -0.33195062     0.73298656
O       4.87128278     2.36618489     5.27306511    -3.37477033     0.33195062    -0.73298656
O       1.30781174     1.28600911     0.11086034    -3.37371437    -0.33239131     0.73316988
O       5.81922364     2.36617020    10.65692093     3.37371437     0.33239131    -0.73316988
O       4.87127085     0.54009532     0.11082541    -3.37477033     0.33195062     0.73298656
O       2.25576442     3.11208399    10.65695590     3.37477033    -0.33195062    -0.73298656
O       5.81921177     0.54008062     5.49475140     3.37371437     0.33239131     0.73316988
O       1.30782345     3.11209874     5.27303019    -3.37371437    -0.33239131    -0.73316988
O       0.25895542     2.22146242     2.90864640    -0.16574237     0.05754902     0.73077438
O       6.86807986     1.43071694     7.85913518     0.16574237    -0.05754902    -0.73077438
O       3.82246996     1.43068285     2.47527861    -0.16639543    -0.05735491    -0.73100681
O       3.30456531     2.22149652     8.29250281     0.16639543     0.05735491     0.73100681
O       0.25894354     0.39537280     2.47524423    -0.16574237     0.05754902    -0.73077438
O       6.86809178     3.25680652     8.29253719     0.16574237    -0.05754902     0.73077438
O       3.30455344     0.39540689     7.85916951     0.16639543     0.05735491    -0.73100681
O       3.82248189     3.25677242     2.90861202    -0.16639543    -0.05735491     0.73100681
