# total energy = -19924.35338760 eV

CRYSTAL
PRIMVEC
        7.05713859     0.00000000     0.00000000
        0.00002362     3.61637347     0.00000000
        0.00000000     0.00000000    10.66221499
PRIMCOORD
24 1
Ti      2.55788743     2.14305964     3.95560572    -0.28683777     0.74576058     0.55381454
Ti      4.49927495     1.47331399     6.70660938     0.28683777    -0.74576058    -0.55381454
Ti      6.08633592     1.47331528     1.37545924    -0.28568078    -0.74618198    -0.55237627
Ti      0.97082651     2.14305851     9.28675602     0.28568078     0.74618198     0.55237627
Ti      2.55787567     0.33487296     1.37550199    -0.28683777     0.74576058    -0.55381454
Ti      4.49928676     3.28150078     9.28671327     0.28683777    -0.74576058     0.55381454
Ti      0.97081470     0.33487157     6.70656663     0.28568078     0.74618198    -0.55237627
Ti      6.08634768     3.28150217     3.95564847    -0.28568078    -0.74618198     0.55237627
O       2.23363733     1.27338663     5.44084671     3.58757367    -0.50560557     1.07113971
O       4.82352510     2.34298700     5.22136839    -3.58757367     0.50560557    -1.07113971
O       1.29499005     1.27340118     0.10977347    -3.58699672    -0.50559631     1.07049565
O       5.76217243     2.34297245    10.55244131     3.58699672     0.50559631    -1.07049565
O       4.82351329     0.53480027     0.10973889    -3.58757367     0.50560557     1.07113971
O       2.23364908     3.08157336    10.55247594     3.58757367    -0.50560557    -1.07113971
O       5.76216067     0.53478571     5.44088129     3.58699672     0.50559631     1.07049565
O       1.29500165     3.08158797     5.22133381    -3.58699672    -0.50559631    -1.07049565
O       0.25641664     2.19968338     2.88013026     0.10181495    -0.02879122     0.77798937
O       6.80074574     1.41669030     7.78208484    -0.10181495     0.02879122    -0.77798937
O       3.78499477     1.41665655     2.45101118     0.10201396     0.02899460    -0.77801045
O       3.27216761     2.19971714     8.21120376    -0.10201396    -0.02899460     0.77801045
O       0.25640488     0.39149659     2.45097713     0.10181495    -0.02879122    -0.77798937
O       6.80075755     3.22487704     8.21123781    -0.10181495     0.02879122     0.77798937
O       3.27215585     0.39153035     7.78211883    -0.10201396    -0.02899460    -0.77801045
O       3.78500658     3.22484328     2.88009621     0.10201396     0.02899460     0.77801045
