# total energy = -19009.18460875 eV

CRYSTAL
PRIMVEC
        7.60600008     0.00000000     0.00000000
        0.00000000     7.60600008     0.00000000
       -1.89786986    -1.89786986     4.85670466
PRIMCOORD
22 1
Ti      4.48936098     6.13681602     0.47110100     1.96475600    -6.14942824     1.76223296
Ti      4.63194022     3.13666624     3.07582282    -6.52627985    12.25111853   -11.33931965
Ti      1.16510998     6.00176798     0.52516799     2.78402599     8.17158363     6.58372861
Ti      0.44262301     2.99907301     0.76839198     2.20547074    -3.91262011     7.95117984
Ti      5.81869122     2.64172824     4.49183081   -29.10063286    29.68137432    33.58792637
Ti      5.84802024     1.51599720     3.54298584     2.42735780   -38.12720143   -34.15347131
Ti     -0.30930775     2.61799321     3.95103579    38.07842629     4.06249594   -10.18246267
Ti      0.29770321    -0.91128275     4.05635079     3.73814036    -0.90263829    -2.45537383
O       4.28967901     5.24417100     2.23708698     0.34529054    -0.53510693    -1.34115398
O       4.30378201     0.10753300     0.15948497    -2.83386736     4.53332321    -1.16279135
O       1.91637302     4.18279299     1.20268098    -1.16294253     0.06693484    -2.51698006
O       0.72672901     1.00919600     0.39672101     0.75489648     0.06097219     0.50224076
O      -0.97634975     4.86735520     3.72849183     2.61471621     1.28524815    -1.98533281
O       4.89592998     1.18616800     2.29621100    -5.67574576    -0.18403809    -3.79757194
O       1.36739523     3.51934320     4.07683583    -1.95012771     1.86399443     1.95362389
O       0.84135923     0.78920622     3.88185380    -2.50265052    -2.18094729     0.92099803
O       3.26049425     2.82758423     3.93838882    -1.18202809    -1.67022343     2.38673332
O       0.35871402     2.45064398     2.22811298     2.14701360    -3.92172233     7.27163137
O       6.95415299     6.16952097     0.43306601    -2.54031489    -0.14326732     0.97530541
O       6.18912699     2.92999998     1.77849801    -1.54591826     1.81909576    -1.73732256
O       1.35806398     6.27395998     2.10719498    -0.33622663     3.04189565     6.21693515
O       5.61697822    -0.00030777     4.27627882    -1.70335956    -9.11084319     0.55924446
