# total energy = -19912.56262287 eV

CRYSTAL
PRIMVEC
        6.82034806     0.00000000     0.00000000
        0.00003394     6.56758762     0.00000000
        0.00000000     0.00000000    11.65477775
PRIMCOORD
24 1
Ti      2.47206828     3.89194628     4.32383952     0.22429130    -0.94030831     0.78162028
Ti      4.34831372     2.67564120     7.33093862    -0.22429130     0.94030831    -0.78162028
Ti      5.88212345     2.67564346     1.50350300     0.22356033     0.94030857    -0.78193755
Ti      0.93825862     3.89194435    10.15127535    -0.22356033    -0.94030857     0.78193755
Ti      2.47205138     0.60815260     1.50354975     0.22429130    -0.94030831    -0.78162028
Ti      4.34833069     5.95943508    10.15122860    -0.22429130     0.94030831     0.78162028
Ti      0.93824165     0.60815021     7.33089194    -0.22356033    -0.94030857    -0.78193755
Ti      5.88214036     5.95943754     4.32388628     0.22356033     0.94030857     0.78193755
O       2.15869520     2.31255917     5.94734403     1.16350534     1.38078601    -0.46007208
O       4.66168688     4.25502832     5.70743412    -1.16350534    -1.38078601     0.46007208
O       1.25154271     2.31258573     0.11999247    -1.16361924     1.38107577    -0.46041250
O       5.56883943     4.25500182    11.53478541     1.16361924    -1.38107577     0.46041250
O       4.66166990     0.97123444     0.11995469    -1.16350534    -1.38078601    -0.46007208
O       2.15871217     5.59635304    11.53482319     1.16350534     1.38078601     0.46007208
O       5.56882246     0.97120795     5.94738188     1.16361924    -1.38107577    -0.46041250
O       1.25155948     5.59637960     5.70739633    -1.16361924     1.38107577     0.46041250
O       0.24781978     3.99477911     3.14824631    -0.17765404    -0.11827567     0.11478849
O       6.57256229     2.57280844     8.50653184     0.17765404     0.11827567    -0.11478849
O       3.65799985     2.57274732     2.67917982    -0.17856190     0.11825022    -0.11500857
O       3.16238215     3.99484024     8.97559819     0.17856190    -0.11825022     0.11500857
O       0.24780281     0.71098523     2.67914257    -0.17765404    -0.11827567    -0.11478849
O       6.57257920     5.85660232     8.97563538     0.17765404     0.11827567     0.11478849
O       3.16236525     0.71104636     8.50656903     0.17856190    -0.11825022    -0.11500857
O       3.65801682     5.85654112     3.14820912    -0.17856190     0.11825022     0.11500857
