# total energy = -19951.97186265 eV

CRYSTAL
PRIMVEC
        5.46917457     0.00000000     0.00000000
        1.70785780     5.56467259     0.00000000
        0.00000000     0.00000000     9.90313533
PRIMCOORD
24 1
Ti      2.99438765     3.29761985     3.67399258     0.93019359    -2.40404457     1.02105178
Ti      4.18264462     2.26705286     6.22914281    -0.93019359     2.40404457    -1.02105178
Ti      5.41259317     2.26705478     1.27753555    -2.02583438    -0.51311062     0.66868684
Ti      1.76443919     3.29761815     8.62559994     2.02583438     0.51311062    -0.66868684
Ti      2.14045888     0.51528365     1.27757526     0.93019359    -2.40404457    -1.02105178
Ti      5.03657342     5.04938923     8.62556024    -0.93019359     2.40404457     1.02105178
Ti      0.91051031     0.51528157     6.22910310     2.02583438     0.51311062     0.66868684
Ti      6.26652199     5.04939131     3.67403228    -2.02583438    -0.51311062    -0.66868684
O       2.33239402     1.95941585     5.05349416     1.06740236     1.57847923    -0.83022237
O       4.84463827     3.60525691     4.84964123    -1.06740236    -1.57847923     0.83022237
O       1.60496363     1.95943830     0.10195835     0.04955932    -0.47727123     0.79132234
O       5.57206872     3.60523451     9.80117676    -0.04955932     0.47727123    -0.79132234
O       3.99070947     0.82292055     0.10192622    -1.06740236    -1.57847923    -0.83022237
O       3.18632282     4.74175222     9.80120889     1.06740236     1.57847923     0.83022237
O       4.71813992     0.82289814     5.05352629    -0.04955932     0.47727123     0.79132234
O       2.45889232     4.74177469     4.84960910     0.04955932    -0.47727123    -0.79132234
O       1.23752369     3.38474936     2.67508392     0.24183677     0.93184038     0.82719387
O       5.93950859     2.17992341     7.22805147    -0.24183677    -0.93184038    -0.82719387
O       3.60233183     2.17987152     2.27651527     1.17824060     0.60792985    -0.16650959
O       3.57470045     3.38480124     7.62661995    -1.17824060    -0.60792985     0.16650959
O       0.38359484     0.60241300     2.27648364     0.24183677     0.93184038    -0.82719387
O       6.79343739     4.96225978     7.62665158    -0.24183677    -0.93184038     0.82719387
O       2.72077165     0.60246488     7.22808305    -1.17824060    -0.60792985    -0.16650959
O       4.45626063     4.96220789     2.67505228     1.17824060     0.60792985     0.16650959
