# total energy = -19901.30463754 eV

CRYSTAL
PRIMVEC
        6.75192060     0.00000000     0.00000000
        2.44042580     6.75900525     0.00000000
        0.00000000     0.00000000    12.27960789
PRIMCOORD
24 1
Ti      3.89344064     4.00538014     4.55564697    -0.36977876    -1.89742033     0.49925160
Ti      5.29890600     2.75362492     7.72396106     0.36977876     1.89742033    -0.49925160
Ti      6.81732818     2.75362722     1.58410802     0.17869405    -0.88306011    -0.02567530
Ti      2.37501850     4.00537805    10.69550014    -0.17869405     0.88306011     0.02567530
Ti      2.67322791     0.62587770     1.58415725    -0.36977876    -1.89742033    -0.49925160
Ti      6.51911876     6.13312750    10.69545091     0.36977876     1.89742033     0.49925160
Ti      1.15480563     0.62587521     7.72391183    -0.17869405     0.88306011    -0.02567530
Ti      8.03754105     6.13313006     4.55569620     0.17869405    -0.88306011     0.02567530
O       2.99634097     2.37996057     6.26618992     1.78056390     1.99406093    -0.69331468
O       6.19600567     4.37904450     6.01341811    -1.78056390    -1.99406093     0.69331468
O       2.09829958     2.37998784     0.12642548    -0.46339601    -0.41124527     1.33174426
O       7.09404714     4.37901729    12.15318221     0.46339601     0.41124527    -1.33174426
O       4.97579292     0.99954192     0.12638563    -1.78056390    -1.99406093    -0.69331468
O       4.21655373     5.75946315    12.15322205     1.78056390     1.99406093     0.69331468
O       5.87383437     0.99951464     6.26622976     0.46339601     0.41124527     1.33174426
O       3.31851220     5.75949044     6.01337826    -0.46339601    -0.41124527    -1.33174426
O       1.72971816     4.11121003     3.31702845     0.58103713     2.31631233     2.26864560
O       7.46262849     2.64779504     8.96257958    -0.58103713    -2.31631233    -2.26864560
O       4.57728446     2.64773208     2.82281460     0.54538569     1.98321447     1.38354866
O       4.61506219     4.11127299     9.45679322    -0.54538569    -1.98321447    -1.38354866
O       0.50950540     0.73170745     2.82277536     0.58103713     2.31631233    -2.26864560
O       8.68284124     6.02729762     9.45683246    -0.58103713    -2.31631233     2.26864560
O       3.39484943     0.73177041     8.96261868    -0.54538569    -1.98321447     1.38354866
O       5.79749721     6.02723466     3.31698928     0.54538569     1.98321447    -1.38354866
