# total energy = -19921.59887675 eV

CRYSTAL
PRIMVEC
        6.30656015     0.00000000     0.00000000
        1.96934799     6.41667987     0.00000000
        0.00000000     0.00000000    11.41940485
PRIMCOORD
24 1
Ti      3.45285849     3.80251858     4.23651775    -0.14607368    -2.08278717     0.72732396
Ti      4.82304954     2.61416144     7.18288716     0.14607368     2.08278717    -0.72732396
Ti      6.24131557     2.61416364     1.47313908    -0.13882111    -0.69697208    -0.04316627
Ti      2.03459256     3.80251662     9.94626597     0.13882111     0.69697208     0.04316627
Ti      2.46818464     0.59417875     1.47318486    -0.14607368    -2.08278717    -0.72732396
Ti      5.80772342     5.82250145     9.94622018     0.14607368     2.08278717     0.72732396
Ti      1.04991858     0.59417636     7.18284138     0.13882111     0.69697208    -0.04316627
Ti      7.22598948     5.82250385     4.23656354    -0.13882111    -0.69697208     0.04316627
O       2.68950698     2.25942211     5.82723489     1.82917706     2.08125299    -0.70038984
O       5.58640106     4.15725797     5.59217003    -1.82917706    -2.08125299     0.70038984
O       1.85069968     2.25944800     0.11756919    -0.58341463    -0.17531768     1.16768673
O       6.42520843     4.15723214    11.30183540     0.58341463     0.17531768    -1.16768673
O       4.60172718     0.94891795     0.11753215    -1.82917706    -2.08125299    -0.70038984
O       3.67418086     5.46776213    11.30187245     1.82917706     2.08125299     0.70038984
O       5.44053455     0.94889212     5.82727194     0.58341463     0.17531768     1.16768673
O       2.83537344     5.46778803     5.59213298    -0.58341463    -0.17531768    -1.16768673
O       1.42700101     3.90298849     3.08466614     0.53613974     1.96597394     1.97538906
O       6.84890703     2.51369159     8.33473878    -0.53613974    -1.96597394    -1.97538906
O       4.15388503     2.51363176     2.62507263     0.72163102     1.79070408     1.00893725
O       4.12202301     3.90304832     8.79433209    -0.72163102    -1.79070408    -1.00893725
O       0.44232706     0.69464848     2.62503616     0.53613974     1.96597394    -1.97538906
O       7.83358091     5.72203161     8.79436857    -0.53613974    -1.96597394     1.97538906
O       3.13734913     0.69470831     8.33477519    -0.72163102    -1.79070408     1.00893725
O       5.13855891     5.72197177     3.08462967     0.72163102     1.79070408    -1.00893725
