# total energy = -19072.16910482 eV

CRYSTAL
PRIMVEC
        5.17600016     0.00000000     0.00000000
        0.00000000     5.50899976     0.00000000
        0.00000000     0.00000000     9.26300011
PRIMCOORD
22 1
Ti      1.72328101     3.50855502     3.13981601     0.55215104     0.64864355     2.31837127
Ti      3.73676801     2.43493799     5.93786400    -0.72039715    -0.10061116    -0.90819753
Ti      4.30337200     2.16028701     1.45334499     1.88294656    -1.29667414     0.33952535
Ti      1.26648600     2.58733199     7.71904499    -0.33895277     0.81915917     1.15454890
Ti      1.75394799     0.75735901     1.22482700    -1.47838229     0.45302572    -0.49885282
Ti      3.21388199     0.03055401     8.01181802     0.48180126    -2.70447628    -0.01297302
Ti      0.71758499     5.29201799     6.46396202     0.01163579    -1.29031246     1.79598590
Ti      4.36119700     5.12493799     3.54945201    -1.54104242     0.26224953     2.32356721
O       3.29093702     3.59148901     4.46611502    -0.18574427    -0.94371631    -0.36601338
O       0.90063698     2.17307802     0.27389701    -0.45644374     0.73243994    -0.27301886
O       4.98857801     3.39657397     7.01263601    -0.50993428     2.47156973    -1.55045394
O       3.49593700     0.64076798     0.47934600     1.52430967     0.52878638    -1.00501914
O       1.35195299     4.86239803     8.24128198     0.13296748     0.22233211     3.16146073
O       3.87784899     0.74137098     4.95566398     0.02538220     1.02542523    -0.82630555
O       0.67783198     4.85350499     4.70311102     1.50425866    -1.69036263    -1.65550232
O       5.09491301     3.53426600     2.54845101     0.25532504    -0.22249564    -0.53219747
O       4.96647999     1.14930499     7.38146197    -0.70463551    -0.47667190    -0.78668355
O       2.63820900     2.10604798     2.34650501    -0.51610853    -0.08946902     0.07438204
O       2.53297999     3.75701300     6.79919798     0.84180314    -1.11289085    -0.38865735
O       0.15440101     0.76177198     2.46532499     0.04195476     1.00269641    -1.27500462
O       2.41723400     1.15947800     6.90694302    -1.67639408     2.43421519    -1.66731937
O       2.45099403     4.90354002     2.33138499     0.87349946    -0.67286232     0.57835779
