# total energy = -19075.12004168 eV

CRYSTAL
PRIMVEC
        7.60600008     0.00000000     0.00000000
        0.00000000     7.60600008     0.00000000
       -1.89786986    -1.89786986     4.85670466
PRIMCOORD
22 1
Ti      3.72285303     6.91316699     1.20135603     0.22297566    -1.23757705     0.40649130
Ti      3.78857398     2.90180600     1.14251199     1.11883344     0.75445579    -0.31845850
Ti     -0.23938402     6.47028701     1.04544099     1.00242079     0.22349348     0.70342118
Ti      0.03254101     2.64964600     1.22781399    -1.54393979     0.47172999     0.82557048
Ti      5.57854323     2.67162824     3.57058783     2.40633748     0.90056521     0.02307952
Ti     -1.42345177    -0.97166976     3.80753080    -0.19056535    -1.68698471    -0.31027442
Ti      2.01264021     3.04799624     3.64136481    -2.32117145    -1.37597650     0.69262074
Ti      1.64900225    -0.77268578     3.63493081     0.12436893    -0.62017242     0.19677071
O       3.87219298     4.72858101     0.67740599    -0.19949300     1.21024185     0.37716786
O       4.20083402     1.06328902     0.89368100    -1.41547329    -0.99045384     0.05697798
O      -0.15308002     4.62548601     0.68406701     0.31531609    -0.52956569     0.29383683
O       7.30027602     0.77532601     0.73129401     0.85777947     1.25339449     1.19096782
O       5.72246621     4.71665325     4.03999281     0.44916623    -0.44120584    -0.52833336
O       5.59464123     0.74738021     4.01986582     0.10915597     1.59947204    -0.01654146
O       1.88993422     4.92350223     4.19365483    -0.29696484     0.13099827    -1.02132097
O       2.25348724     0.96456222     3.97905382    -0.85357906    -0.02478724     0.00514966
O       3.80423922     3.17841922     3.23423181     0.04448524    -0.48958425    -1.01502331
O       0.01784423     2.76450720     3.27471583     0.55652268     0.00950589    -0.63942022
O       5.66352597     6.57499002     2.04121800    -0.73971282    -0.15001390    -1.48829622
O       5.78625398     2.84701499     1.62354702    -1.11373185     0.00951437     0.76320320
O       1.71346900     6.54596698     1.79175702     0.81516316     0.63146626    -0.62490583
O       1.91347398     2.67512398     1.52006800     0.65210657     0.35148382     0.42731699
