# total energy = -39036.52477887 eV

CRYSTAL
PRIMVEC
        7.60600008     0.00000000     0.00000000
        0.00000000     7.60600008     0.00000000
       -3.79573973    -3.79573973     9.71340985
PRIMCOORD
46 1
Ti      1.89076444     4.85097843     6.25097464     0.38216069    -0.36660757     0.63856945
Ti      3.74462798     6.71889602     1.35346501    -0.04619554     0.49508332     0.00051859
Ti      1.91577347     0.72418743     6.02323262    -0.39161001     0.88555691     0.31785480
Ti      3.75625797     2.76396300     1.12490600     1.06229332    -0.59393611    -0.57121475
Ti     -1.87462956     4.74583843     6.19728664    -0.47460114     0.19097236    -0.72719412
Ti     -0.07052298     6.74901499     1.32526399    -0.07335000    -0.30424801    -1.11598491
Ti     -1.90484257     0.98797842     6.05745160     0.96049379     0.36212227    -0.61508807
Ti      0.06016899     2.94783003     1.08527099    -0.78150407     0.59126139    -2.49332873
Ti      3.87179144     1.06453243     8.35823062    -0.23839843    -1.04073281     2.05207070
Ti      5.71576598     2.87177403     3.43740302    -1.43870142     0.22196085     0.23772017
Ti      3.81106444    -2.88336957     8.55452564    -0.34710857     2.06440351    -0.38153797
Ti      5.75861902    -0.92978999     3.72266802    -1.24740947    -0.39805500    -0.03820429
Ti      0.05888245     1.04184343     8.45239364     0.10683375    -2.04710873    -1.17641949
Ti      1.79490700     2.75126301     3.46567801     1.70391775    -0.38832517     0.60370502
Ti     -0.00471957    -2.96734756     8.58434261    -0.19133925     0.80864207     0.71510247
Ti      1.92953800    -1.23115802     3.66844101    -0.35184249     2.03771417    -0.26612779
O       1.63809046    -1.04394553     5.75174062     0.21465505     1.03922203    -1.24295426
O       3.45651399     0.89424002     0.93190098     0.60310492     0.67432245    -1.68480262
O      -1.93535953     3.01708747     5.73903660    -0.17863054    -2.37691325    -0.78465444
O       0.02211802     4.82301798     0.76222098    -0.53021798    -0.17380381    -0.41903726
O      -1.84630255    -0.86816555     5.64633560     0.39646554    -0.98387876     0.11503711
O      -0.03703399     1.03336199     0.77603600     0.40859190    -1.12034371     0.71379789
O       3.79373944     2.95852443     8.98817561    -0.19755618    -2.17669520    -0.73386073
O       5.57176098     4.73970997     3.99694599     0.52891083     0.01672272    -0.23648193
O       4.12291447    -0.99733454     8.83116364    -0.87102348     1.54106890     0.52159295
O       5.69818798     0.94161398     3.98703900     0.09911529     2.09676394     0.74893615
O       0.17585444     2.72974444     9.10160761    -0.10271278     0.95133141    -0.53585949
O       1.83599200     4.64371902     4.32162100     0.28890134    -1.93275090    -2.11664886
O       0.03303347    -0.83780856     8.89819960    -0.27851382    -0.16326280     0.34079934
O       1.89727200     0.94976098     4.04640798    -0.36543077     0.85304298     0.39314239
O       2.00558442     0.92004043     7.99838660    -0.59636966     0.32082957     0.07420464
O       3.83895600     2.77170402     3.03056202    -0.20432282     0.52383392     1.34687803
O       1.84318643    -2.59819055     8.17990562     0.36483119    -1.13158792     0.55897783
O       3.74614402    -0.71131498     3.25207599    -0.25307044    -1.60250389     0.56673768
O      -1.88692754     0.89500844     8.07251264     0.58004083     1.10182996    -0.63954801
O      -0.00078398     2.81777001     2.96348600    -0.44984526     0.08418412     2.08671298
O      -1.93146156    -3.03519253     8.12251963     1.35836470     0.19435413    -0.18104892
O      -0.07474798    -0.84968398     3.31836697     1.66291018    -0.63823417    -0.63902093
O       3.76860447     4.93273743     6.51348560     0.23957291    -0.71280211     0.18278416
O       5.67733300     6.78870498     1.52651100    -0.29767472    -0.64651827     1.01926512
O       3.83831045     0.76119443     6.38633262    -0.41374722     0.93421454     0.06674201
O       5.68767699     2.79484499     1.35739299    -0.01290849     0.67155414     1.25007082
O       0.04472543     4.62155644     6.52999964    -0.94801957    -0.30918041     0.61023485
O       1.82951498     6.48401699     1.61228698     0.70520629    -0.36585192     1.31295206
O       0.03422443     1.07947343     6.44716562     0.18311481     0.25989569    -0.04285054
O       1.93709201     2.96556302     1.54289501    -0.56738071     0.55245391     0.16746115
