# total energy = -19518.30598060 eV

CRYSTAL
PRIMVEC
        5.93400000     0.00000000     0.00000000
        0.00000000     9.29699974     0.00000000
        0.00000000     0.00000000     4.64899994
PRIMCOORD
23 1
Ti      4.53179200     7.03181398     2.28425303     0.59721272     0.44820952     0.10108347
Ti      4.38357802     2.30523199     2.32688598     1.22557026    -0.65454089     0.25961441
Ti      1.47847298     7.05568199     2.24499898    -0.55241303     0.11530759    -0.01228962
Ti      1.42625101     2.30761297     2.32177598    -0.89486482    -0.08362105     0.26528935
Ti      2.98203700     4.50165800     0.13424899    -0.09699979    -0.25970131    -0.25125241
Ti      2.92034900     9.26620099     4.60217998     0.72100599     0.30046694     0.20797070
Ti      0.00094601     4.67140102     0.03914599     0.10968999    -0.70864669    -0.37612219
Ti      5.92562302     0.03794402     4.64607201    -0.66984076     0.71632015    -0.21717345
O       4.38748198     5.51559601     0.98735098    -0.13608803     0.58888234    -0.20622929
O       4.51059300     0.95789798     0.91968598    -0.33189457    -0.41730820    -0.25585083
O       1.53844903     5.52320500     0.91814401     0.26678573     0.69172857     0.07659062
O       1.45843600     0.90366202     0.82566801     0.82340355     0.08391672     0.57305308
O       4.52240402     8.35116299     3.78459002    -0.84512527    -0.24434874    -0.26207547
O       4.50417001     3.70996401     3.81897802    -0.80930053     0.38601426    -0.98447448
O       1.56610600     8.35765901     3.66836200    -0.11978620    -0.19435824     0.62914532
O       1.39876100     3.70684102     3.67550198     0.86849609     1.04357491     0.43427105
O       2.89311098     1.37094601     3.18428198     0.64622362     0.05546669     0.29052602
O       0.03563199     6.20685300     3.20290600     0.31311163    -1.24338184     0.69203736
O       0.01634502     1.43509801     3.27650101    -0.25862428    -0.08489169    -0.75879710
O       3.06707499     7.98193797     1.55449902    -0.67107566    -0.42665339    -0.76989964
O       2.96994403     3.14563500     1.34351902    -0.28822026     0.10031266     0.39598500
O       0.04440998     7.93840600     1.39949698    -0.00878109    -0.34773746    -0.22390589
O       5.90532399     3.23769200     1.36569102     0.11151470     0.13498888     0.39250398
