# total energy = -4988.60503608 eV

CRYSTAL
PRIMVEC
        3.19032014     0.00000000     0.00000000
        0.24978183     4.99250880     0.00000000
       -0.00000138    -0.00006488     5.00031732
PRIMCOORD
6 1
Ti      1.72005018     2.49622179     2.50015855     0.00000000     0.00000000     0.00000000
Ti      0.00000000     0.00000000     0.00000000     0.00000000     0.00000000     0.00000000
O       1.64383851     0.97295366     0.97448813     0.12607692    -0.58093378    -0.59201472
O       1.79626179     4.01948992     4.02582891    -0.12607692     0.58093378     0.59201472
O       0.07621098     1.52324183     3.47464769    -0.12649164     0.58193394    -0.59292695
O       0.17356935     3.46920198     1.52566935     0.12649164    -0.58193394     0.59292695
