# total energy = -19903.39480311 eV

CRYSTAL
PRIMVEC
        7.61741359     0.00000000     0.00000000
        0.00002398     3.07515688     0.00000000
        0.00000000     0.00000000    11.78985701
PRIMCOORD
24 1
Ti      2.76096037     1.82233508     4.37395288    -0.47398561     0.33772147     1.07576924
Ti      4.85647742     1.25282169     7.41590424     0.47398561    -0.33772147    -1.07576924
Ti      6.56953715     1.25282274     1.52092857    -0.47245915    -0.33830588    -1.07489481
Ti      1.04790063     1.82233419    10.26892865     0.47245915     0.33830588     1.07489481
Ti      2.76094848     0.28475669     1.52097584    -0.47381078     0.33753455    -1.07507170
Ti      4.85648930     2.79040019    10.26888139     0.47381078    -0.33753455     1.07507170
Ti      1.04788875     0.28475559     7.41585697     0.47269698     0.33817810    -1.07540980
Ti      6.56954904     2.79040129     4.37400015    -0.47269698    -0.33817810     1.07540980
O       2.41096804     1.08281499     6.01627378     5.13059172    -0.35524303     0.77151558
O       5.20646980     1.99234178     5.77358335    -5.13059172     0.35524303    -0.77151558
O       1.39780035     1.08282738     0.12138319    -5.13118745    -0.35503091     0.77114817
O       6.21963755     1.99232939    11.66847361     5.13118745     0.35503091    -0.77114817
O       5.20645791     0.45476334     0.12134495    -5.12956560     0.35519623     0.77182926
O       2.41097987     2.62039343    11.66851185     5.12956560    -0.35519623    -0.77182926
O       6.21962566     0.45475095     6.01631207     5.13069534     0.35500212     0.77246869
O       1.39781207     2.62040587     5.77354505    -5.13069534    -0.35500212    -0.77246869
O       0.27677286     1.87048473     3.18473450     0.23160789    -0.15656559     1.38574181
O       7.34066492     1.20467204     8.60512263    -0.23160789     0.15656559    -1.38574181
O       4.08548969     1.20464346     2.71023150     0.23108287     0.15685663    -1.38645221
O       3.53194815     1.87051336     9.07962541    -0.23108287    -0.15685663     1.38645221
O       0.27676098     0.33290629     2.71019385     0.23140503    -0.15695459    -1.38761461
O       7.34067681     2.74225048     9.07966306    -0.23140503     0.15695459     1.38761461
O       3.53193627     0.33293487     8.60516017    -0.23109675    -0.15716465    -1.38608531
O       4.08550157     2.74222190     3.18469690     0.23109675     0.15716465     1.38608531
