# total energy = -19962.05169698 eV

CRYSTAL
PRIMVEC
        5.12399498     0.00000000     0.00000000
        0.00002808     5.45348018     0.00000000
        0.00000000     0.00000000     9.17082431
PRIMCOORD
24 1
Ti      1.85721837     3.23172731     3.40231048    -0.00445444     0.08324438    -0.07965101
Ti      3.26680469     2.22175292     5.76851410     0.00445444    -0.08324438     0.07965101
Ti      4.41912616     2.22175480     1.18306517    -0.00387080    -0.08310914     0.07969986
Ti      0.70489690     3.23172564     7.98775952     0.00387080     0.08310914    -0.07969986
Ti      1.85720444     0.50498732     1.18310194    -0.00445444     0.08324438     0.07965101
Ti      3.26681863     4.94849306     7.98772274     0.00445444    -0.08324438    -0.07965101
Ti      0.70488297     0.50498529     5.76847732     0.00387080     0.08310914     0.07969986
Ti      4.41914010     4.94849509     3.40234725    -0.00387080    -0.08310914    -0.07969986
O       1.62178665     1.92026313     4.67980155    -0.16173350    -0.15220808    -0.01541788
O       3.50223641     3.53321715     4.49102303     0.16173350     0.15220808     0.01541788
O       0.94026058     1.92028509     0.09441878     0.16201375    -0.15231041    -0.01542431
O       4.18376254     3.53319519     9.07640553    -0.16201375     0.15231041     0.01542431
O       3.50222248     0.80647701     0.09438902     0.16173350     0.15220808    -0.01541788
O       1.62180059     4.64700322     9.07643529    -0.16173350    -0.15220808     0.01541788
O       4.18374860     0.80645505     4.67983130    -0.16201375     0.15231041    -0.01542431
O       0.94027441     4.64702523     4.49099327     0.16201375    -0.15231041     0.01542431
O       0.18618365     3.31711580     2.47726850    -0.06230094     0.04108856    -0.03698919
O       4.93783941     2.13636443     6.69355608     0.06230094    -0.04108856     0.03698919
O       2.74818525     2.13631361     2.10817295    -0.06231302    -0.04109576     0.03694959
O       2.37583782     3.31716662     7.06265147     0.06231302     0.04109576    -0.03694959
O       0.18616971     0.59037566     2.10814366    -0.06230094     0.04108856     0.03698919
O       4.93785335     4.86310457     7.06268076     0.06230094    -0.04108856    -0.03698919
O       2.37582388     0.59042648     6.69358531     0.06231302     0.04109576     0.03694959
O       2.74819919     4.86305375     2.47723921    -0.06231302    -0.04109576    -0.03694959
