# total energy = -19943.31508325 eV

CRYSTAL
PRIMVEC
        5.81587851     0.00000000     0.00000000
        1.52368606     5.99938882     0.00000000
        0.00000000     0.00000000    10.49270491
PRIMCOORD
24 1
Ti      3.01091125     3.55523243     3.89271888     0.20462415    -2.05365810     0.89921307
Ti      4.32865349     2.44415678     6.59998662    -0.20462415     2.05365810    -0.89921307
Ti      5.63657131     2.44415885     1.35359198    -0.63342415    -0.52550591     0.08625514
Ti      1.70299346     3.55523059     9.13911365     0.63342415     0.52550591    -0.08625514
Ti      2.24906834     0.55553807     1.35363405     0.20462415    -2.05365810    -0.89921307
Ti      5.09049643     5.44385138     9.13907158    -0.20462415     2.05365810     0.89921307
Ti      0.94115044     0.55553577     6.59994455     0.63342415     0.52550591     0.08625514
Ti      6.39841432     5.44385362     3.89276095    -0.63342415    -0.52550591    -0.08625514
O       2.37727804     2.11248692     5.35434725     1.58537699     1.87824349    -0.66599336
O       4.96228664     3.88690230     5.13835825    -1.58537699    -1.87824349     0.66599336
O       1.60373294     2.11251113     0.10802831    -0.52444379    -0.05637403     0.91770342
O       5.73583187     3.88687819    10.38467690     0.52444379     0.05637403    -0.91770342
O       4.20044371     0.88720776     0.10799426    -1.58537699    -1.87824349    -0.66599336
O       3.13912103     5.11218145    10.38471095     1.58537699     1.87824349     0.66599336
O       4.97398894     0.88718359     5.35438130     0.52444379     0.05637403     0.91770342
O       2.36557575     5.11220569     5.13832421    -0.52444379    -0.05637403    -0.91770342
O       1.13809655     3.64916850     2.83434153     0.37580775     1.33505610     1.36252474
O       6.20146813     2.35022072     7.65836397    -0.37580775    -1.33505610    -1.36252474
O       3.71613483     2.35016477     2.41204462     0.86153071     1.27504395     0.44795524
O       3.62342992     3.64922450     8.08066071    -0.86153071    -1.27504395    -0.44795524
O       0.37625362     0.64947396     2.41201110     0.37580775     1.33505610    -1.36252474
O       6.96331112     5.34991531     8.08069423    -0.37580775    -1.33505610     1.36252474
O       2.86158698     0.64952990     7.65839743    -0.86153071    -1.27504395     0.44795524
O       4.47797775     5.34985931     2.83430802     0.86153071     1.27504395    -0.44795524
