# total energy = -19961.44109107 eV

CRYSTAL
PRIMVEC
        7.60600008     0.00000000     0.00000000
        0.00000000     7.60600008     0.00000000
       -1.89786986    -1.89786986     4.85670466
PRIMCOORD
24 1
Ti      3.70698400     6.69091202     1.28417602     1.63621261     0.11123265    -0.53728646
Ti      3.80715800     2.96507602     1.25088501    -0.22725424    -0.08375732    -0.38233141
Ti      0.08467699     6.59456101     1.17449398    -1.77336610     0.85494611     0.44923642
Ti      0.01633702     2.87522802     1.20936100     0.09029718    -0.87410469    -1.34849577
Ti      5.74754122     2.81655623     3.61953180    -0.71683977    -1.10698373     0.00364557
Ti      5.73722624    -1.06808776     3.62387682    -0.05394562     1.04408861    -0.70618846
Ti      1.84813525     2.92878721     3.59662181     0.69277449    -0.02677882     0.81366035
Ti      1.86815820    -0.91412576     3.66296281    -0.25467018    -0.30101561     1.19718321
O       3.76429999     4.85252601     0.70122902     0.27535754    -1.08740581     1.08201780
O       3.65007898     0.94704498     0.81496599     0.43545351     0.46772806     0.18211465
O       0.10907999     4.74303898     0.70272400    -0.60752336    -1.17916594     0.84285858
O       0.09432902     0.87121700     0.70861602    -0.10038645     0.51207009     0.83742789
O       5.84810120     4.66002324     4.04462380    -0.20785834     0.56602626    -0.44335219
O       5.68643824     0.85509625     3.99179980    -0.36493018     0.89504994     0.75623577
O       1.77295525     4.77139123     4.14230183     0.02676519     0.45240068    -1.08673012
O       1.85110023     1.02749622     4.20056980     0.48831489    -1.07117622    -1.45094759
O       3.74103222     2.87965321     3.20554379     0.24223426    -0.00402352     0.15799075
O       3.76199722    -1.11002580     3.21434279     0.08325312     0.41559944     0.52325748
O      -0.00490378     2.68949823     3.21323681     0.32677165     0.21450002    -0.60867445
O       0.00650623    -0.93600279     3.16399983     0.64389446    -0.01750125     0.51881333
O       5.75884498     6.66223299     1.66278700    -0.68740140    -0.27341995    -0.50663529
O       5.71526898     2.98322500     1.71318198    -0.10937683    -0.15084771    -1.24504945
O       1.88071198     6.45408599     1.67886399     0.23796314     0.59462105     0.09215531
O       1.86777000     2.93562699     1.52457299    -0.07574010     0.04791818     0.85909407
