# total energy = -39033.05970595 eV

CRYSTAL
PRIMVEC
        5.93200024     0.00000000     0.00000000
        0.00000000     9.29399984     0.00000000
        0.00000000     0.00000000     9.29399984
PRIMCOORD
46 1
Ti      4.36928098     6.88873101     6.92130500     1.01337626     0.11922184     0.08078743
Ti      4.43466898     6.96014301     2.38666502     0.64907215    -1.66338403     0.63348457
Ti      4.43187900     2.28687002     7.12988201    -0.01434599    -0.36569354    -1.63143344
Ti      4.31696398     2.72559199     2.03667999     0.47861540    -1.17817838     1.72641439
Ti      1.42599098     7.07045397     7.12115799    -0.74094901    -1.58484092    -2.34885865
Ti      1.49861902     7.15858400     2.25600099    -0.66155486    -2.59823543     0.37084474
Ti      1.46301999     2.30736902     6.84398199     0.19916544     0.93007197    -0.19503856
Ti      1.35784602     2.05308099     2.61266699     0.73354089     1.32402940    -0.66129158
Ti      2.94595901     4.66891098     4.64694002    -0.15948250    -0.45216620     0.42886402
Ti      3.00459402     4.80920201     9.14551403    -1.53984197     0.78623310     0.69949433
Ti      3.00679302     9.25558998     4.70446301    -1.07470352     0.20174117     0.11890431
Ti      2.98418001     0.08240798     0.03679602     1.39286737     0.21922391    -0.70069863
Ti      0.00568802     4.64154701     4.66414701     0.70402821    -0.26547498    -0.57210512
Ti      0.05883599     4.48136702     9.20483702     1.18881992     1.35189503     0.63337119
Ti      5.87304598     9.17263002     4.81532602     0.92577232     0.07869944     0.49605752
Ti      0.01807998     9.15760102     0.00121197    -1.42455520     0.98295650    -0.73828303
O       4.60641901     5.53037302     5.49317800    -2.56512038     1.75208687     1.89259102
O       4.55444502     5.48697800     0.65433598    -0.12607538    -0.16226804     1.54533693
O       4.36385199     0.71052402     5.63495601     1.16893732     1.12366789    -0.03419748
O       4.54108700     1.08673100     0.75156103    -0.59752408     0.23575765     1.28491288
O       1.53614499     5.59580801     5.57203800     0.56891386    -0.04295209     0.24114360
O       1.47046102     5.60317400     0.92067099     0.50744211    -1.49316949    -1.23121666
O       1.50162400     0.82516699     5.67706302    -0.28059642    -0.17531922    -1.95443405
O       1.64221899     0.96722801     0.97136501    -1.19728914    -0.35056670     0.84987769
O       4.49487898     8.52665901     8.30095698     0.30085235    -0.68910912     0.38077435
O       4.57043099     8.40253398     3.69365498    -1.23041036     0.12877066    -0.51575449
O       4.46828501     3.83135997     8.12870999    -0.08895712    -0.12809729     1.69265066
O       4.44415400     3.63033099     3.87904498     0.67683879     0.33491202    -2.14775048
O       1.47039397     8.15089300     8.52698297    -0.19052241     3.02681869     1.46338916
O       1.47899099     8.26919301     3.89996701     0.21376237     0.38837608    -1.83029960
O       1.59943099     3.98651998     8.09765602    -0.30685999    -1.01238921     1.26852209
O       1.50303500     3.79518902     3.90266999     0.20483267    -2.16916032    -1.75445871
O       2.93247198     6.29531302     8.00296901     0.92184573    -1.02801176    -0.46516853
O       3.05724901     5.85882000     3.04203998    -0.15880425     1.10816079     0.50262643
O       2.88729998     1.40754301     7.87219201     0.39487043    -0.34178767     0.79134239
O       3.05150903     1.66170102     3.22902799    -0.33011563    -0.97919549    -0.60984121
O       5.92483000     6.04729601     7.79181401    -0.85488980     0.06947715     0.36837777
O       0.04001601     6.05179200     3.27253901    -0.43852546     0.42834852    -0.90447792
O       0.10837301     1.37967802     7.83087200    -0.14788040    -0.06725803     0.93168868
O       2.83408798     7.99721998     6.16054100     1.14967049    -0.74910738    -0.65651370
O       3.01116799     7.73098498     1.26727601     0.18408077     1.22409650     0.90894547
O       3.11597398     3.11017600     5.97248902    -0.71817289    -0.00249191     0.63668611
O       5.79708401     7.83383899     6.04113501     0.81827754     0.24630380     0.37777541
O       5.84320901     7.67592699     1.34349198     1.02334417     1.90494595    -0.41477694
O       5.90207998     3.11274198     6.04146998     0.13581292     0.13386736    -0.19681596
O       0.17012599     3.29205798     1.57742399    -0.70756245    -0.60080558    -0.76144817
