# total energy = -4986.54888993 eV

CRYSTAL
PRIMVEC
        3.49723588     0.00000000     0.00000000
        0.69251468     3.42798515     0.00000000
       -2.09490714    -1.71401864     4.48596102
PRIMCOORD
6 1
Ti      0.51926546     2.57111995     1.12149038     0.00106084    -0.00089937    -0.00014038
Ti      1.57557796    -0.85715344     3.36447079    -0.00106084     0.00089937     0.00014038
O       0.17316531     0.85699128     0.73072645     0.00073971     0.00218621     1.18596985
O       1.92167800     0.85697515     3.75523476    -0.00073971    -0.00218621    -1.18596985
O      -0.17314236    -0.85697250     2.97370686     0.00217387     0.00071554     1.18694302
O       2.26798557     2.57093883     1.51225430    -0.00217387    -0.00071554    -1.18694302
