# total energy = -4986.91712108 eV

CRYSTAL
PRIMVEC
        3.27394167     0.00000000     0.00000000
        1.26271421     4.97193646     0.00000000
       -0.00000812    -0.00006722     5.17095905
PRIMCOORD
6 1
Ti      2.26832375     2.48593452     2.58547958     0.00000000     0.00000000     0.00000000
Ti      0.00000000     0.00000000     0.00000000     0.00000000     0.00000000     0.00000000
O       1.88305356     0.96894402     1.00774379     0.70409558    -0.34966887    -0.62347192
O       2.65359388     4.00292502     4.16321538    -0.70409558     0.34966887     0.62347192
O       0.38526674     1.51696328     3.59322441    -0.70376339     0.35066286    -0.62341741
O       0.87743922     3.45490585     1.57773476     0.70376339    -0.35066286     0.62341741
