# total energy = -19934.72030365 eV

CRYSTAL
PRIMVEC
        5.81520427     0.00000000     0.00000000
        2.91255931     5.46098958     0.00000000
        0.00000000     0.00000000    10.77031512
PRIMCOORD
24 1
Ti      3.83371183     3.23617737     3.99571011     1.42278782    -3.48224479     0.76877453
Ti      4.89405191     2.22481235     6.77460512    -1.42278782     3.48224479    -0.76877453
Ti      6.20181863     2.22481429     1.38940448    -3.32259414    -0.65916553     0.97261449
Ti      2.52594529     3.23617568     9.38091081     3.32259414     0.65916553    -0.97261449
Ti      2.37743240     0.50568276     1.38944768     1.42278782    -3.48224479    -0.76877453
Ti      6.35033145     4.95530716     9.38086767    -1.42278782     3.48224479     0.76877453
Ti      1.06966558     0.50568066     6.77456192     3.32259414     0.65916553     0.97261449
Ti      7.65809826     4.95530921     3.99575325    -3.32259414    -0.65916553    -0.97261449
O       2.86611057     1.92290731     5.49600939     1.45565116     1.97750071    -1.20933116
O       5.86165324     3.53808245     5.27430585    -1.45565116    -1.97750071     1.20933116
O       2.09266071     1.92292929     0.11088644     0.94731071    -1.22185732     1.23097754
O       6.63510317     3.53806051    10.65942845    -0.94731071     1.22185732    -1.23097754
O       4.40537369     0.80758764     0.11085148    -1.45565116    -1.97750071    -1.20933116
O       4.32239010     4.65340207    10.65946340     1.45565116     1.97750071     1.20933116
O       5.17882362     0.80756570     5.49604428    -0.94731071     1.22185732     1.23097754
O       3.54894013     4.65342408     5.27427089     0.94731071    -1.22185732    -1.23097754
O       1.98286348     3.32168339     2.90933081     0.67084503     2.23630445     2.12461697
O       6.74490033     2.13930637     7.86098436    -0.67084503    -2.23630445    -2.12461697
O       4.25984214     2.13925536     2.47586101     1.19076959     1.33125266     0.82031797
O       4.46792167     3.32173440     8.29445399    -1.19076959    -1.33125266    -0.82031797
O       0.52658393     0.59118857     2.47582663     0.67084503     2.23630445    -2.12461697
O       8.20117986     4.86980113     8.29448837    -0.67084503    -2.23630445     2.12461697
O       3.01164213     0.59123958     7.86101868    -1.19076959    -1.33125266     0.82031797
O       5.71612167     4.86975013     2.90929643     1.19076959     1.33125266    -0.82031797
