# total energy = -19070.02959302 eV

CRYSTAL
PRIMVEC
        5.17600016     0.00000000     0.00000000
        0.00000000     5.50899976     0.00000000
        0.00000000     0.00000000     9.26300011
PRIMCOORD
22 1
Ti      1.75535301     3.35903499     3.33496600    -0.30411714     1.10964714     1.38688518
Ti      3.88784202     2.46468601     5.89370802    -1.13944264    -1.49120079    -0.12550793
Ti      4.23292602     2.35844701     1.36249399    -0.64628301    -1.68388036    -0.51310162
Ti      1.03856502     3.04364101     8.22311199    -0.79730607     0.72470683    -0.28914945
Ti      1.67871201     0.47825003     1.25170999     1.56422478     0.42044546    -2.48230281
Ti      3.30766997     5.04594601     7.71193200    -1.60195907     1.84143377     2.35659253
Ti      0.72080397     0.06884898     6.13241999     0.53671824     1.17995090    -1.41059102
Ti      4.39418501     5.06718899     3.35410898    -1.38291129    -0.39391475     3.05348953
O       3.37986002     3.53144199     4.29619599     0.77009890    -0.95286404     2.66684175
O       0.68122702     2.01661200     0.51690002     1.76753278     0.24333289    -1.90645262
O       4.59624298     3.87731198     8.21122503     0.81720693    -1.16014311     1.44412670
O       3.35247102     0.54143098     0.36020402    -0.49494526     1.62596110    -0.55585857
O       1.56365702     4.95916798     8.59007799    -1.09439304    -0.60453394     1.39681196
O       4.19714697     0.67488700     5.00033300     1.30780265     1.05922393    -0.76724472
O       0.82351098     4.85607801     4.35453302     0.46415654    -0.85483324     2.12676256
O       0.08799699     3.54940502     2.37935502    -1.01459239     0.07466692    -0.14387513
O       0.17831299     1.69352198     7.01770903    -0.76225909     0.23316289    -0.39697076
O       2.61821002     2.07484399     2.44882302    -0.04073632    -1.97732433    -1.90549154
O       2.49881900     3.47280698     7.10151001     0.19259421    -1.60499426    -2.48357088
O       4.94758800     0.71258998     2.14495098     0.89170570     0.59875307     0.36103084
O       2.58626099     0.80010399     6.59213097    -0.87844420     0.79974785    -0.21281620
O       2.33252500     4.90014800     2.60249398     1.84534879     0.81265582    -1.59960780
