# total energy = -4987.38032829 eV

CRYSTAL
PRIMVEC
        3.21000387     0.00000000     0.00000000
        1.47567535     4.80824364     0.00000000
       -0.00000983    -0.00006592     5.08843883
PRIMCOORD
6 1
Ti      2.34283476     2.40408891     2.54421942     0.00000000     0.00000000     0.00000000
Ti      0.00000000     0.00000000     0.00000000     0.00000000     0.00000000     0.00000000
O       1.89258742     0.93704312     0.99166177     0.23663234     0.01281927    -0.30150232
O       2.79308216     3.87113469     4.09677701    -0.23663234    -0.01281927     0.30150232
O       0.45024331     1.46701911     3.53588231    -0.23713730    -0.01040166    -0.30141362
O       1.02542243     3.34115847     1.55255652     0.23713730     0.01040166     0.30141362
