# total energy = -4989.76814463 eV

CRYSTAL
PRIMVEC
        3.03464805     0.00000000     0.00000000
        0.70923681     4.70164574     0.00000000
       -0.00000445    -0.00006172     4.76834348
PRIMCOORD
6 1
Ti      1.87193992     2.35079192     2.38417169     0.00000000     0.00000000     0.00000000
Ti      0.00000000     0.00000000     0.00000000     0.00000000     0.00000000     0.00000000
O       1.65554282     0.91626942     0.92927988    -0.39577674     0.01856209    -0.03606102
O       2.08833702     3.78531442     3.83906344     0.39577674    -0.01856209     0.03606102
O       0.21639516     1.43449749     3.31345258     0.39571863    -0.01826384    -0.03640966
O       0.49283675     3.26708645     1.45489074    -0.39571863     0.01826384     0.03640966
