# total energy = -19961.15179788 eV

CRYSTAL
PRIMVEC
        5.93400000     0.00000000     0.00000000
        0.00000000     9.29699974     0.00000000
        0.00000000     0.00000000     4.64899994
PRIMCOORD
24 1
Ti      4.41615502     7.00479398     2.37412002     0.19694143    -0.42830738    -0.33519407
Ti      4.48309700     2.30630300     2.31736502     0.24962156     0.06617765     0.52995752
Ti      1.48111500     7.00389200     2.34781600    -0.21769487    -0.12906146    -0.18414042
Ti      1.48857597     2.37776299     2.26583200    -0.33131890    -0.45783934     0.44416569
Ti      2.95069700     4.62790498     0.01515601     0.90988932     0.07842922     0.07678680
Ti      2.96445302     9.25909102     4.62420101    -0.42173487     0.40944293    -0.34366740
Ti      0.03307501     4.71439302     4.63969399    -0.90892490    -0.00637788     0.21185307
Ti      5.91629199     9.27100698     0.04410698     0.38590936     0.01735958    -0.11267915
O       4.43110698     5.51209100     0.90627700    -0.33537431     0.45896548     0.42182305
O       4.49475499     0.87117699     0.88840600    -0.38754381     0.30695898    -0.43748108
O       1.46891598     5.49846098     0.97429797     0.38116567     0.25808589    -0.13187116
O       1.47424601     0.86206901     0.81417799     0.13739878     0.26218217     0.06151855
O       4.45743000     8.33593999     3.76323301    -0.01443264     0.37686704    -0.14514140
O       4.45530001     3.72101699     3.79367800    -0.43844679    -0.36053050    -0.72730108
O       1.52392703     8.29387902     3.69277401    -0.05508256     1.07570085     0.93134261
O       1.41769099     3.76058802     3.76288401     0.75481163    -0.35793729    -0.57491816
O       2.93691702     6.09934599     3.22009500     0.38129114    -0.64179155     0.29347199
O       2.87206301     1.32236198     3.15756001     0.95242207     0.38230518     0.15858159
O       0.04836299     6.18536698     3.34789798    -0.41346517    -0.51464197    -0.72512926
O       0.05866401     1.40629299     3.06734100    -0.86667163    -0.60690861     1.19913648
O       3.04017802     7.95543201     1.46413698    -0.43498556    -0.45207826    -0.25415133
O       2.96253999     3.23287601     1.49702101     0.44223042     0.50600100    -1.07561704
O       5.90032999     7.87842699     1.38155702     0.32037911    -0.18429109     0.11154067
O       5.92408603     3.20300200     1.33760499    -0.28638475    -0.05871065     0.60711353
