# total energy = -19932.38762359 eV

CRYSTAL
PRIMVEC
        6.72847815     0.00000000     0.00000000
        0.00002368     3.85599609     0.00000000
        0.00000000     0.00000000    10.17962506
PRIMCOORD
24 1
Ti      2.43876383     2.28505983     3.77656843    -0.17157852     1.26211027    -0.37431702
Ti      4.28973816     1.57093657     6.40305705     0.17157852    -1.26211027     0.37431702
Ti      5.80288759     1.57093794     1.31320367    -0.16823866    -1.26182719     0.37589696
Ti      0.92561439     2.28505857     8.86642192     0.16823866     1.26182719    -0.37589696
Ti      2.43875209     0.35706184     1.31324447    -0.17157852     1.26211027     0.37431702
Ti      4.28974989     3.49893467     8.86638112     0.17157852    -1.26211027    -0.37431702
Ti      0.92560266     0.35706032     6.40301626     0.16823866     1.26182719     0.37589696
Ti      5.80289932     3.49893614     3.77660923    -0.16823866    -1.26182719    -0.37589696
O       2.12961422     1.35776183     5.19458492     2.74797011    -0.81167391     1.51733067
O       4.59888777     2.49823452     4.98504057    -2.74797011     0.81167391    -1.51733067
O       1.23468098     1.35777737     0.10480493    -2.74703757    -0.81163046     1.51580677
O       5.49382106     2.49821903    10.07482024     2.74703757     0.81163046    -1.51580677
O       4.59887603     0.57023647     0.10477191    -2.74797011     0.81167391     1.51733067
O       2.12962595     3.28575993    10.07485326     2.74797011    -0.81167391    -1.51733067
O       5.49380933     0.57022094     5.19461794     2.74703757     0.81163046     1.51580677
O       1.23469255     3.28577547     4.98500750    -2.74703757    -0.81163046    -1.51580677
O       0.24447556     2.34543543     2.74977078     0.28946287     0.08773867     1.33054355
O       6.48402642     1.51056097     7.42985470    -0.28946287    -0.08773867    -1.33054355
O       3.60872294     1.51052491     2.34007429     0.29227489    -0.08781786    -1.33010029
O       3.11977904     2.34547149     7.83955098    -0.29227489     0.08781786     1.33010029
O       0.24446383     0.41743734     2.34004180     0.28946287     0.08773867    -1.33054355
O       6.48403815     3.43855907     7.83958347    -0.28946287    -0.08773867     1.33054355
O       3.11976731     0.41747339     7.42988714    -0.29227489     0.08781786    -1.33010029
O       3.60873467     3.43852301     2.74973829     0.29227489    -0.08781786     1.33010029
