# total energy = -4984.05836486 eV

CRYSTAL
PRIMVEC
        3.36393259     0.00000000     0.00000000
        2.48036645     4.65068633     0.00000000
       -0.00001595    -0.00007186     5.45429918
PRIMCOORD
6 1
Ti      2.92214128     2.32530712     2.72714971     0.00000000     0.00000000     0.00000000
Ti      0.00000000     0.00000000     0.00000000     0.00000000     0.00000000     0.00000000
O       2.16534994     0.90633622     1.06296264     0.40452827     0.37880231    -0.36946483
O       3.67893264     3.74427814     4.39133684    -0.40452827    -0.37880231     0.36946483
O       0.75678457     1.41894202     3.79011341    -0.40497075    -0.37878380    -0.36957770
O       1.72356556     3.23167242     1.66418601     0.40497075     0.37878380     0.36957770
