# total energy = -4986.02844572 eV

CRYSTAL
PRIMVEC
        3.47812530     0.00000000     0.00000000
        0.68873045     3.40925299     0.00000000
       -2.08345956    -1.70465242     4.46144757
PRIMCOORD
6 1
Ti      0.51642794     2.55707012     1.11536201     0.00092740    -0.00104181    -0.00029208
Ti      1.56696825    -0.85246955     3.34608570    -0.00092740     0.00104181     0.00029208
O       0.17221906     0.85230826     0.72673341     0.00075642     0.00236079     1.32460687
O       1.91117703     0.85229222     3.73471435    -0.00075642    -0.00236079    -1.32460687
O      -0.17219623    -0.85228959     2.95745709     0.00235770     0.00070371     1.32497300
O       2.25559221     2.55688999     1.50399062    -0.00235770    -0.00070371    -1.32497300
