# total energy = -19958.31071261 eV

CRYSTAL
PRIMVEC
        7.60600008     0.00000000     0.00000000
        0.00000000     7.60600008     0.00000000
       -1.89786986    -1.89786986     4.85670466
PRIMCOORD
24 1
Ti      3.87599999     6.54173002     1.29194202    -1.20075319     1.18474138    -3.18370309
Ti      3.98653999     2.89604299     1.19298402    -1.47349077    -1.21840742     0.84515740
Ti     -0.17432601     6.72026902     1.25680200     2.91989367    -2.47240328     0.47318034
Ti     -0.04722399     2.72466402     1.19770999     2.17132802     2.19349171     1.94351071
Ti      5.65793125     2.82126422     3.72429080     0.58696456     0.21508057     0.38787959
Ti      5.55396221    -0.92569479     3.66717083     2.26425030    -0.09650305     0.80235598
Ti      1.90857724     2.91276722     3.55077882    -0.72058664     2.65686304    -1.42739756
Ti      1.87079425    -0.74607076     3.56643982    -0.89815506    -2.24296772     0.96664696
O       3.96045398     4.76447801     0.56999401     0.26936044     0.26792807     3.77042803
O       4.07458000     0.93912002     0.69570499    -0.94859344     0.47024800    -0.43593842
O      -0.20234701     4.49129602     0.93702098     0.60085315     2.50670850    -1.30622836
O      -0.27273298     0.87541703     0.86921602     0.95442701     1.04203070    -1.33443157
O       5.54584023     4.64163322     4.26616582     0.32296667     1.04242228    -1.35422496
O       5.64241021     0.96544024     3.96308383     0.41434834    -3.02100234     0.75842223
O       2.20147224     4.69947922     3.73925281    -0.95537498     1.66490253     1.81847715
O       1.91236022     1.06935424     3.92378983    -0.01684947    -3.36074033     0.90863642
O       3.84310221     2.81586423     3.21330883     1.62741377    -0.25027667    -0.99936066
O       3.81004821    -0.87567479     3.16719284     0.64307505    -0.20881094     0.70351708
O       0.00492823     2.81631424     3.20548384    -0.33404145    -0.10387338     0.53967064
O      -0.03978677    -1.23141377     3.16769783     0.26412747     0.97458884     1.24688394
O       5.75143703     6.84048799     1.70312602    -3.16496103    -1.05001270     0.61669603
O       5.80972098     2.85225998     1.77874699    -2.79512210    -0.14906670    -0.99103285
O       2.01651299     6.59826700     1.69351500    -0.59929069     0.57002715    -1.50630474
O       1.99600499     2.85606900     1.71164800     0.06821011    -0.61496800    -3.24284003
