# total energy = -19075.13375473 eV

CRYSTAL
PRIMVEC
        7.60600008     0.00000000     0.00000000
        0.00000000     7.60600008     0.00000000
       -1.89786986    -1.89786986     4.85670466
PRIMCOORD
22 1
Ti      3.76665398     6.50335101     1.17666102    -0.69428399    -1.13862888     0.42062261
Ti      3.76064300     2.73513601     1.20207100     0.19035478     1.94845803     0.15450613
Ti     -0.00258598     6.67359501     1.22883800     0.18487678    -0.38174648    -1.77925727
Ti     -0.05205998     2.95129302     1.16021202    -0.34996069     0.12849196     1.03114490
Ti      5.70130521     2.91304620     3.53415583     0.63081680     1.00948772     0.87039793
Ti      6.06498820    -0.80516377     3.69332779    -1.04381351    -1.74579409    -0.16547575
Ti      1.91250622     2.68589824     3.53982183    -0.79941618     1.54569714     0.86201588
Ti      1.95601120    -1.04741080     3.80277980    -1.43080556    -0.40016073    -1.28871014
O       3.38552698     4.68316802     0.69828198     1.29287662    -0.19984421    -0.00968381
O       3.73801300     0.90417299     1.08743999     0.40864640    -0.66255605    -1.34435732
O       0.12601599     4.74424799     0.69406401    -0.71451986     1.19879041    -0.11776917
O       7.29494001     1.13954098     0.67054600     0.56652171    -2.00198328     1.52667586
O      -1.56777079     4.85313023     4.09622779    -0.99499492     0.60874875     0.31298667
O       5.55445820     0.95060121     3.99909382     0.63668945     1.82724256    -1.19843971
O       1.77518721     4.67188824     4.14878483     0.80120181     1.34108405    -0.47857864
O       1.95014824     0.85423221     3.88800882     0.20929662    -0.23393191     1.09178157
O       3.79827221     3.01923324     3.16460082    -0.54633340    -0.45005609     0.83425798
O      -0.03583477     3.09091125     3.13728580     0.35549551    -1.60827345    -0.56049273
O       5.58356697     6.51907298     1.84754902     0.78923229     0.13654337    -0.13480453
O       5.59235100     3.24924701     1.61832098     0.79966840    -0.93557671    -0.60870607
O       1.72007901     6.51295500     1.82216302     1.10916866     0.68433716     0.94543843
O       1.92125902     2.83724902     1.63374401    -1.40071772    -0.67032952    -0.36355284
