# total energy = -19961.05876429 eV

CRYSTAL
PRIMVEC
        5.93400000     0.00000000     0.00000000
        0.00000000     9.29699974     0.00000000
        0.00000000     0.00000000     4.64899994
PRIMCOORD
24 1
Ti      4.40773602     6.95864999     2.26832902     0.75435783    -0.77700335     0.45469436
Ti      4.48805301     2.25904498     2.28322902    -0.11187825     1.20312554     0.82267516
Ti      1.50500698     7.02482498     2.38610398    -0.95072437    -1.36534627    -0.25573796
Ti      1.47960700     2.33936800     2.28398801     0.37503256     0.35758042     0.09651102
Ti      2.98101801     4.64065101     4.63208501    -0.60943935    -0.82431089     0.35528519
Ti      2.97685402     9.29262202     4.62419698    -0.27863904     0.82787598    -0.29966167
Ti      5.91343300     4.67772601     4.62422699     0.70726061    -0.33991719    -0.09220545
Ti      5.91525602     9.24310198     0.07103400     0.26846518     0.64232891    -0.34265310
O       4.54291398     5.53393502     0.98722599    -0.91985029     0.46812710    -0.20364764
O       4.49720302     0.95007901     0.97279702    -0.38326395    -1.36791095    -1.33873483
O       1.46899398     5.52710101     0.96366299     0.34786139     0.65501320     0.14724250
O       1.48854999     0.92992800     0.85639199    -0.27279466     0.08402317     0.60545105
O       4.41447399     8.35859099     3.80776602     0.26707138     0.48419573    -0.11882640
O       4.47372199     3.68991201     3.75189898    -0.27035828     0.82367994     0.15570015
O       1.48843701     8.47078901     3.76147201     0.05861115    -0.93003264    -0.47104479
O       1.50245201     3.78926101     3.73125498    -0.08577203    -0.28665548    -0.32307234
O       3.03546199     5.98841599     3.25894900    -0.56796384     1.52214917    -0.74838079
O       2.93604001     1.39131198     3.19399900    -0.14457833     0.16369191     0.03422320
O       0.00543402     6.20336101     3.31464802     0.27082494    -0.27951681    -0.27055986
O       0.00360999     1.40813802     3.23182501     0.00736390     0.17732622    -0.25163576
O       2.96397200     7.91000897     1.41240398    -0.14233452    -0.34034965     0.55985818
O       2.92841298     3.29459099     1.40329001    -0.03499221    -0.82900470     0.46479366
O       5.90476402     7.83105499     1.42217100     0.69462543     0.76261365    -0.20298841
O       5.81356101     3.24827898     1.31062901     1.02111451    -0.83168328     1.22271427
