# total energy = -19074.19650472 eV

CRYSTAL
PRIMVEC
        7.60600008     0.00000000     0.00000000
        0.00000000     7.60600008     0.00000000
       -1.89786986    -1.89786986     4.85670466
PRIMCOORD
22 1
Ti      3.90590602     6.55316199     1.31517798     0.25134857     1.52936060    -0.15388084
Ti      3.63706800     2.78563799     1.15533300     0.32987240    -0.56813765     0.59213993
Ti     -0.01915399     6.74797299     0.97621698    -0.38606260    -0.86019014     0.78041315
Ti     -0.16075399     2.84647300     1.01727002    -0.82186963     1.24598559     1.32362857
Ti      5.62043121     3.00624924     3.51850583    -0.65979648    -0.47936231    -0.31929025
Ti     -1.18669480    -0.71885676     3.88567780    -1.07637783    -1.48323088    -1.48836486
Ti      1.78487623     2.74057823     3.70970980     0.58944542     0.00612977     0.05952492
Ti      1.77991425    -1.09760675     3.79758883     0.41167671     0.84506536     0.06046466
O       3.81001497     4.76676998     0.89288998    -0.58430526    -1.24520089    -0.66572570
O       4.02755498     0.84940399     0.94273202    -0.83668999    -0.21359627    -0.33580934
O      -0.14633201     4.80193201     0.64326601     0.23370282     0.83460405     0.05545846
O       7.18840700     1.08760001     0.56602402     0.58619683    -2.19554268     1.68800133
O       5.36990023     4.94069425     3.93493880     1.49237013    -0.98595878     0.37956156
O       5.64602725     0.91836823     3.95423080    -0.08314385     1.96335604    -0.52834775
O       2.15908324     4.67379322     4.23826881    -0.95471138     0.26501193    -0.80212021
O       2.16875120     0.89408222     4.10572081    -1.12723915    -0.49211858    -0.53326216
O       3.60670021     2.85166423     3.09301780    -0.18205423    -0.05648124     0.45076392
O      -0.13171079     2.61836623     3.19783680     1.33922103     1.26960787    -0.16507337
O       5.93974602     6.63427502     2.12072302    -0.04132613     0.24668587    -1.48252769
O       5.51025000     2.86447000     1.58234899     1.70271524     0.63849643     0.56384673
O       1.98110701     6.69876098     1.88099901    -0.12328110    -0.32642378    -0.14375583
O       1.73118702     2.66993799     1.24057700    -0.05969127     0.06194021     0.66435479
