# total energy = -19073.55857191 eV

CRYSTAL
PRIMVEC
        5.17600016     0.00000000     0.00000000
        0.00000000     5.50899976     0.00000000
        0.00000000     0.00000000     9.26300011
PRIMCOORD
22 1
Ti      1.68645599     3.34698800     3.23700401    -1.13260530     0.05577856     2.20247052
Ti      3.76045398     2.07272199     5.83289497    -0.83052165     1.92297916    -0.60014635
Ti      4.35441401     2.20580202     1.25503598     0.22871359     0.35856232    -1.60226606
Ti      0.86947701     3.06833199     8.00691302    -0.38635596     1.23386438     0.74083100
Ti      1.73965698     0.54176500     1.34072999    -0.41258405    -0.05310384    -1.89395397
Ti      3.31110698     5.12747302     8.08975900    -0.75423262    -0.71150550     1.79489447
Ti      1.54395300     0.31985500     5.78814198    -0.25558318    -1.27821875     0.83527279
Ti      4.17082998     4.94788402     3.46466797     1.12876201     0.16427915     1.00698167
O       3.03874098     3.52287498     4.63152402     1.25152889    -2.09875218     0.13383420
O       0.89821001     1.94212602     0.30075202    -0.61081669     0.25201191    -0.98123052
O       4.30230100     3.58569198     8.87936300     0.34497995     0.16952112    -0.63801923
O       3.33891202     0.87124700     0.32464199     0.90747557     0.15905364    -0.61948980
O       1.70633400     4.85015900     9.09956302    -1.29144529    -0.90330807     0.95456097
O       3.30081898     0.48505001     4.93238299     0.24690004     0.08196860    -1.28972702
O       0.72690401     4.81686799     4.41699398    -0.78938501     0.32707478     0.50214743
O       5.11433900     3.55069600     2.41697603    -0.35488513    -0.76039119     0.40688417
O       0.39386599     1.90099402     6.41231602    -0.38368998    -0.25996562    -0.20864973
O       2.56086498     2.16275298     2.20949102     0.61197137    -1.44555084     0.27778003
O       2.14360999     4.12804500     6.99054498    -0.02509449     0.11467896    -1.58050321
O       4.98746499     0.68499100     2.14255000     1.08767449    -0.35499183     1.46819815
O       2.70923999     1.28072801     7.13432202     0.75455375     0.37707247     0.76438900
O       2.54076598     4.64171302     2.47090898     0.66463916     2.64894249    -1.67425878
