# total energy = -19517.00174763 eV

CRYSTAL
PRIMVEC
        5.17600016     0.00000000     0.00000000
        0.00000000     5.50899976     0.00000000
        0.00000000     0.00000000     9.26300011
PRIMCOORD
23 1
Ti      1.83091503     3.18995100     3.38816000     0.12683745     0.03676268     2.21422972
Ti      3.47404600     2.27821099     5.85577300    -0.54380446     0.03098206    -2.44735739
Ti      4.26326799     2.18919300     1.48463599     0.86060357    -1.02085226    -1.67258910
Ti      0.78148198     3.48997799     7.75635199     1.28399551    -0.81430621     2.77386396
Ti      1.97610798     0.13114901     1.55374997    -0.19195889     0.40201450    -3.20016433
Ti      3.26350299     5.10318003     7.96111199    -0.55541634     1.81302435     2.63603092
Ti      0.78188500     0.58831000     5.97380202     0.14955161    -0.41098405    -3.21830656
Ti      4.41515901     4.94693499     3.32910102     1.64566141     0.19258187     2.04017394
O       1.80745401     1.91768898     4.76824999    -0.12968829    -0.29675735     0.62368738
O       3.67301199     3.64453199     4.48253301    -0.64382427    -0.92391084     1.11460114
O       4.92188898     2.96168801     9.21775598    -0.17173253     0.44436161    -0.13472611
O       3.65782301     0.63367801     0.22417800    -0.55592028    -0.14866227     0.13879257
O       1.64356897     4.84042600     8.98219098    -0.22073032    -0.61165590     0.93533065
O       4.33181301     0.85279099     4.81215402    -0.00417907    -0.20335942    -0.37613299
O       1.01836801     4.70733401     4.25414900     0.54238161     0.80199037     0.99921488
O       0.21246303     3.39177000     2.51339598    -0.46657081    -0.74592281    -1.00490062
O       5.14376898     1.98221601     6.86946801    -0.37662176     0.58783359    -0.00174244
O       2.45820602     1.91197699     2.00892501     0.02383259    -0.45385824     0.34464776
O       2.70356599     3.53950099     7.08870498    -1.49358009    -1.41250906    -0.00950769
O       0.17882799     0.64258602     2.02375298     0.23068152     0.19278807     0.48347145
O       4.94836499     4.75828500     7.05783299     0.04797963     1.10222462    -1.16309705
O       2.42381998     0.84554402     6.96814898     0.21442288     0.55769691    -0.87015394
O       2.98396003     4.22099001     2.18661300     0.22807982     0.88051806    -0.20536694
