# total energy = -19518.01712850 eV

CRYSTAL
PRIMVEC
        5.93400000     0.00000000     0.00000000
        0.00000000     9.29699974     0.00000000
        0.00000000     0.00000000     4.64899994
PRIMCOORD
23 1
Ti      4.53219502     7.02724099     2.25145499     1.26602092     0.11282879     0.41727554
Ti      4.36143799     2.30653102     2.30547198     1.17323723    -0.46626973     0.44161233
Ti      1.52383902     7.05681999     2.26159001    -0.98600660     0.02392515     0.24945521
Ti      1.39773598     2.31431601     2.34523102    -0.72108492    -0.46921159     0.07513975
Ti      2.94570400     4.51933501     0.13111700     0.45364021    -0.01140645    -0.00361934
Ti      2.95130402     0.00144301     4.59191802     0.13708690    -0.08219846    -0.06209576
Ti      5.92853498     4.64732399     0.02202499    -0.24042420     0.08880748    -0.45852351
Ti      5.92298999     0.05501999     4.64891702    -0.28989687     0.04223990    -0.15470128
O       4.44207799     5.47958100     1.01392102    -0.47870385     0.66606792    -0.27580105
O       4.48055298     0.99829399     0.92677003    -0.33632562    -0.97279344    -0.49794728
O       1.53860799     5.55207802     0.97290597     0.48178506    -0.11528599    -0.53367328
O       1.42720602     0.96503700     0.78986901     1.06378147    -0.34141177     0.81016056
O       4.47678302     8.41472702     3.70615097    -0.35842863    -0.36743649     0.50898785
O       4.54046299     3.66070603     3.88019102    -1.08126549     0.38352003    -1.28874048
O       1.52098401     8.32746997     3.65552300     0.30941335     0.44130354     1.23832859
O       1.46195301     3.70891503     3.69799201     0.64066592     0.87622585     0.33481072
O       2.92039499     1.36321500     3.18798902     0.24651489     0.16159004     0.13667989
O       0.01500599     6.10905602     3.22629902     0.25194224    -0.51569381     0.49432588
O       5.91509800     1.38671502     3.31791299     0.12343871     0.65771749    -1.43840471
O       3.11058198     8.02070301     1.54094399    -1.10067836    -0.73108857    -0.81956875
O       2.95098800     3.18047598     1.35039599    -0.35211322    -0.22885192     0.84800979
O       0.08179599     7.88882998     1.42088002    -0.34386563     0.18808732    -0.64604596
O       5.92751599     3.14468597     1.36259602     0.14126674     0.65933522     0.62433530
