# total energy = -4987.32280258 eV

CRYSTAL
PRIMVEC
        4.15852730     0.00000000     0.00000000
        1.02362824     4.03057497     0.00000000
       -2.59111564    -2.01531693     5.34981529
PRIMCOORD
6 1
Ti      0.76758614     3.02308557     1.33745374    -0.00001877     0.00001877     0.00000000
Ti      1.82345396    -1.00782739     4.01236121     0.00001877    -0.00001877     0.00000000
O       0.25595067     1.00763800     0.87144113    -0.00068031    -0.00125547    -1.24679549
O       2.33508925     1.00762009     4.47837381     0.00068031     0.00125547     1.24679549
O      -0.25592095    -1.00761489     3.54634861    -0.00125547    -0.00068031    -1.24679549
O       2.84696086     3.02287292     1.80346634     0.00125547     0.00068031     1.24679549
