# total energy = -19960.56946543 eV

CRYSTAL
PRIMVEC
        5.93400000     0.00000000     0.00000000
        0.00000000     9.29699974     0.00000000
        0.00000000     0.00000000     4.64899994
PRIMCOORD
24 1
Ti      4.49354100     6.85250899     2.22176000    -1.25460625     0.69489694     1.63712458
Ti      4.45296099     2.51991201     2.35292600     0.89966918    -2.02485299    -0.24678486
Ti      1.48912600     6.87216898     2.15961400     1.30183769     0.46856958     1.64350631
Ti      1.48001801     2.34336202     2.41029299    -0.37128903    -1.40580620     0.21829805
Ti      2.97345602     4.61536099     0.07903400    -0.11383512     0.39293284    -1.23785653
Ti      2.95194602     9.28664798     0.07067300     0.71583549     0.20492137    -0.67912013
Ti      0.02278299     4.65508802     4.56387998    -0.10550989    -0.51969702    -0.12250617
Ti      5.93316702     9.27444901     0.09051402    -0.59033862     0.27346726    -0.88708877
O       4.43232800     5.58245099     0.86108198     0.13557175    -0.41413648    -0.60325327
O       4.37507298     0.90832301     1.04782202     0.63390598    -0.40960131    -0.37220332
O       1.45322699     5.55091102     0.78316302     0.20813576     0.49518025     0.51257377
O       1.46600498     0.91552099     1.07030999    -0.14741245    -0.45838030    -0.61336234
O       4.45547601     8.42560600     3.76261001     0.29412531     0.25083126     0.37860279
O       4.41510900     3.82983499     3.70571901    -0.32628468     0.01702045     0.10861655
O       1.50321201     8.38556099     3.79924299    -0.75062022     0.48099907     0.12988781
O       1.45740701     3.80243202     3.69828798     0.65581538    -0.02215726     0.20663861
O       2.93215802     6.07656998     3.18223798     0.16914754    -0.47013847     0.21735600
O       2.92418797     1.51261099     3.37241799    -0.06944218     0.49684196    -0.67782532
O       5.93192298     5.87770200     3.05379999     0.07181222     0.90826773     0.35768635
O       5.90262699     1.59502702     3.32340099     0.30217184    -0.32490349    -0.17318109
O       2.99528500     7.68436901     1.35977100    -0.43998842     1.44900923    -0.50499956
O       3.02860899     3.21474301     1.31468902    -0.87492333     0.33022361     0.53034936
O       0.00862501     7.84338498     1.42895701    -0.11148590     0.35109224    -0.13764612
O       5.92915898     3.36904400     1.39697301    -0.23229206    -0.76458003     0.31518754
