# total energy = -19923.96883806 eV

CRYSTAL
PRIMVEC
        6.26789157     0.00000000     0.00000000
        1.32100932     6.53882773     0.00000000
        0.00000000     0.00000000    11.27522004
PRIMCOORD
24 1
Ti      3.05463803     3.87490326     4.18302636    -0.15481312    -1.74587842     0.74572124
Ti      4.53426256     2.66392463     7.09219413     0.15481312     1.74587842    -0.74572124
Ti      5.94383224     2.66392697     1.45453883     0.06662014    -0.21175356    -0.28604407
Ti      1.64506837     3.87490117     9.82068178    -0.06662014     0.21175356     0.28604407
Ti      2.39413352     0.60548964     1.45458404    -0.15481312    -1.74587842    -0.74572124
Ti      5.19476709     5.93333844     9.82063657     0.15481312     1.74587842     0.74572124
Ti      0.98456375     0.60548711     7.09214892    -0.06662014     0.21175356    -0.28604407
Ti      6.60433685     5.93334097     4.18307157     0.06662014    -0.21175356     0.28604407
O       2.44897698     2.30243243     5.75365866     1.75030509     1.91289786    -0.51509037
O       5.13992361     4.23639546     5.52156183    -1.75030509    -1.91289786     0.51509037
O       1.61531029     2.30245876     0.11608473    -0.89624807     0.37791425     0.75413878
O       5.97359036     4.23636918    11.15913545     0.89624807    -0.37791425    -0.75413878
O       4.47941908     0.96698164     0.11604812    -1.75030509    -1.91289786    -0.51509037
O       3.10948151     5.57184625    11.15917205     1.75030509     1.91289786     0.51509037
O       5.31308584     0.96695537     5.75369526     0.89624807    -0.37791425     0.75413878
O       2.27581469     5.57187259     5.52152523    -0.89624807     0.37791425    -0.75413878
O       1.03123968     3.97728562     3.04571834     0.47328267     1.20464944     1.40863364
O       6.55766090     2.56154227     8.22950215    -0.47328267    -1.20464944    -1.40863364
O       3.87916932     2.56148120     2.59192778     0.64893588     1.41391289     0.58737979
O       3.70973127     3.97734669     8.68329252    -0.64893588    -1.41391289    -0.58737979
O       0.37073516     0.70787180     2.59189175     0.47328267     1.20464944    -1.40863364
O       7.21816544     5.83095615     8.68332855    -0.47328267    -1.20464944     1.40863364
O       3.04922673     0.70793281     8.22953812    -0.64893588    -1.41391289     0.58737979
O       4.53967386     5.83089508     3.04568231     0.64893588     1.41391289    -0.58737979
