# total energy = -19960.58536178 eV

CRYSTAL
PRIMVEC
        5.93400000     0.00000000     0.00000000
        0.00000000     9.29699974     0.00000000
        0.00000000     0.00000000     4.64899994
PRIMCOORD
24 1
Ti      4.51493702     6.93093099     2.17662800    -1.64309905     1.06217196     0.65172784
Ti      4.39910498     2.27693398     2.29410498     0.64126345     0.35489336     0.74258706
Ti      1.46664401     6.93649000     2.41041597     1.55626052     0.74454779     0.06960982
Ti      1.45472800     2.28430298     2.34458902    -0.36760258    -0.10467942     0.65121336
Ti      2.98574103     4.71935300     0.00277098    -0.71527448    -1.08453440    -0.78239855
Ti      2.95211901     0.06962300     0.04738999    -0.30537621    -1.14659751    -0.81606459
Ti      0.01438298     4.62155200     4.60081000     0.47138983    -1.24933343    -0.30588503
Ti      5.91827402     9.27226701     0.08453601    -0.04866792     0.20146735    -1.82418937
O       4.45798199     5.49592199     0.87043101     0.60733593     1.01867685     0.82421962
O       4.39550901     0.88383999     0.88994702     0.73909705     0.32662535     1.24032865
O       1.48321599     5.60726999     0.85472302    -0.38353700    -0.73942640    -0.18777082
O       1.47167998     0.90839202     0.97750701     0.16199010    -0.36070611    -0.25652317
O       4.46571702     8.45526998     3.75374698     0.07510555    -0.52755225    -0.16176719
O       4.42216801     3.86612401     3.69315300     0.38735638    -0.61297282     0.14208796
O       1.48152400     8.46871500     3.68380398    -0.31551921    -0.30853712     0.44112099
O       1.57138602     3.73702598     3.64052601    -0.52428387     1.36154027     1.47438937
O       3.01417901     6.13949900     3.16972601     0.18113326    -0.66156591     0.77221158
O       2.98520100     1.50601602     3.29553599     0.21857933    -0.76214468     0.34373914
O       5.81668299     6.00125002     3.19896898     0.67815802     0.55116528    -0.18444458
O       5.88326699     1.50344199     3.38968202     0.53650561    -0.23696350    -0.56507958
O       2.84431602     7.81645800     1.36282102     1.24384566     0.31596350     0.03558511
O       3.04104899     3.12263399     1.38327600    -0.61103703     1.22546021    -0.62408564
O       0.13405600     7.90577000     1.45206899    -1.62410451    -0.34926135    -0.13361565
O       0.08094099     3.18950702     1.50701701    -0.95951883     0.98176248    -1.54699606
