# total energy = -19904.74851687 eV

CRYSTAL
PRIMVEC
        7.84255882     0.00000000     0.00000000
        0.00002469     3.16604821     0.00000000
        0.00000000     0.00000000    12.13832569
PRIMCOORD
24 1
Ti      2.84256511     1.87619720     4.50323228    -0.29905052     0.22835930     1.56852238
Ti      5.00001862     1.28985091     7.63509353     0.29905052    -0.22835930    -1.56852238
Ti      6.76371067     1.28985198     1.56588213    -0.29876564    -0.22841200    -1.56894018
Ti      1.07887306     1.87619629    10.57244379     0.29876564     0.22841200     1.56894018
Ti      2.84255287     0.29317315     1.56593079    -0.29954083     0.22872079    -1.56837994
Ti      5.00003086     2.87287507    10.57239512     0.29954083    -0.22872079     1.56837994
Ti      1.07886083     0.29317201     7.63504487     0.29939865     0.22882981    -1.56799916
Ti      6.76372290     2.87287620     4.50328094    -0.29939865    -0.22882981     1.56799916
O       2.48222818     1.11481938     6.19409468     4.20207064    -0.04520412    -0.11558733
O       5.36035560     2.05122873     5.94423113    -4.20207064     0.04520412     0.11558733
O       1.43911464     1.11483213     0.12497087    -4.20169989    -0.04529154    -0.11619385
O       6.40346920     2.05121597    12.01335460     4.20169989     0.04529154     0.11619385
O       5.36034337     0.46820462     0.12493150    -4.20305794     0.04538642    -0.11585575
O       2.48224036     2.69784348    12.01339398     4.20305794    -0.04538642     0.11585575
O       6.40345696     0.46819187     6.19413410     4.20255375     0.04535685    -0.11716804
O       1.43912671     2.69785629     5.94419170    -4.20255375    -0.04535685     0.11716804
O       0.28495334     1.92576999     3.27886458    -0.39393403     0.05920199     1.08822702
O       7.55763039     1.24027812     8.85946123     0.39393403    -0.05920199    -1.08822702
O       4.20624308     1.24024869     2.79033687    -0.39288014    -0.05898319    -1.08618504
O       3.63634071     1.92579947     9.34798872     0.39288014     0.05898319     1.08618504
O       0.28494111     0.34274588     2.79029810    -0.39377822     0.05970669    -1.08667330
O       7.55764262     2.82330222     9.34802748     0.39377822    -0.05970669     1.08667330
O       3.63632847     0.34277531     8.85949988     0.39310639     0.05944341    -1.08676791
O       4.20625531     2.82327279     3.27882587    -0.39310639    -0.05944341     1.08676791
