# total energy = -19952.15218795 eV

CRYSTAL
PRIMVEC
        4.81344983     0.00000000     0.00000000
        0.00002638     5.12296623     0.00000000
        0.00000000     0.00000000     8.61501678
PRIMCOORD
24 1
Ti      1.74465968     3.03586505     3.19610984    -0.05007097     0.74543302    -0.84741226
Ti      3.06881653     2.08710123     5.41890718     0.05007097    -0.74543302     0.84741226
Ti      4.15130033     2.08710299     1.11136425    -0.04661720    -0.74506175     0.83764772
Ti      0.66217588     3.03586348     7.50365288     0.04661720     0.74506175    -0.83764772
Ti      1.74464659     0.47438203     1.11139879    -0.04998998     0.74094593     0.83718647
Ti      3.06882962     4.64858439     7.50361833     0.04998998    -0.74094593    -0.83718647
Ti      0.66216279     0.47438012     5.41887264     0.04629890     0.74021239     0.84779690
Ti      4.15131342     4.64858630     3.19614439    -0.04629890    -0.74021239    -0.84779690
O       1.52349655     1.80388355     4.39617721    -1.56125258    -1.37550342    -0.18269392
O       3.28997966     3.31908278     4.21883982     1.56125258     1.37550342     0.18269392
O       0.88327509     1.80390418     0.08869643     1.56159377    -1.37646013    -0.18246843
O       3.93020117     3.31906215     8.52632035    -1.56159377     1.37646013     0.18246843
O       3.28996657     0.75759962     0.08866848     1.56180691     1.37611072    -0.18310041
O       1.52350964     4.36536666     8.52634830    -1.56180691    -1.37611072     0.18310041
O       3.93018808     0.75757898     4.39620516    -1.56129526     1.37624621    -0.18203340
O       0.88328808     4.36538734     4.21881186     1.56129526    -1.37624621     0.18203340
O       0.17489979     3.11607848     2.32713101    -0.56165692     0.34131870    -0.37407611
O       4.63857642     2.00688780     6.28788601     0.56165692    -0.34131870     0.37407611
O       2.58162857     2.00684006     1.98040489    -0.56264577    -0.34166940     0.37732110
O       2.23184765     3.11612622     6.63461199     0.56264577     0.34166940    -0.37732110
O       0.17488670     0.55459531     1.98037738    -0.56155331     0.34075280     0.37725476
O       4.63858951     4.56837096     6.63463950     0.56155331    -0.34075280    -0.37725476
O       2.23183455     0.55464306     6.28791348     0.56219248     0.34134081     0.37433322
O       2.58164166     4.56832322     2.32710350    -0.56219248    -0.34134081    -0.37433322
