# total energy = -19517.38157722 eV

CRYSTAL
PRIMVEC
        5.93400000     0.00000000     0.00000000
        0.00000000     9.29699974     0.00000000
        0.00000000     0.00000000     4.64899994
PRIMCOORD
23 1
Ti      4.45578500     7.21908002     2.12414802    -0.72286875    -0.55493117     0.70973915
Ti      4.45571298     2.25743501     2.34867401     0.44899140    -0.24124233    -0.13808783
Ti      1.31699702     7.00768800     2.19780499     0.14569187     0.14042574     1.00696933
Ti      1.42085499     2.34820701     2.45334199    -0.07260849    -1.09425188    -1.12668636
Ti      2.93822202     4.41935199     0.21738300     1.00253597     0.03837013     0.12986287
Ti      3.05694701     0.05985000     4.56434201    -1.16365961    -0.30493680     0.18404375
Ti      5.88523801     4.59184901     4.62776099    -0.51674513     0.96956876     0.17327545
Ti      0.07316299     0.08700298     0.02530499     1.35309830     0.41587069    -0.84229525
O       4.52619600     5.59375999     1.07043202    -0.66142733    -0.99351757    -1.37544840
O       4.46209798     0.83853401     0.97827998    -0.18007910    -0.35011882    -0.56688938
O       1.64025701     5.44330902     0.98307999    -0.68460558     1.03596238     0.16365335
O       1.68918400     0.96002601     0.93467900    -1.46863704    -0.71404781    -0.45221659
O       4.48432300     8.57600098     3.46303499     0.04800149    -0.67913453     1.97005351
O       4.49513600     3.68762300     3.77717402    -0.45354302     0.81206549    -0.21089276
O       1.40203602     8.40902899     3.60272201     0.46350117     0.03356654     1.10023124
O       1.44947300     3.59266299     3.91365302     0.67508555     0.74603620    -0.95735447
O       2.98067198     1.46138701     3.29103899    -0.16628076    -0.06199523     0.06974454
O       0.06513299     6.02043502     3.17124998     0.01427091    -0.26013609     0.82742810
O       5.89450301     1.42474101     3.24938401     0.69649411    -0.15883818     0.54032730
O       2.87826603     7.90806700     1.46462203     0.64127065    -0.88563378    -0.66310266
O       3.00889698     3.10841802     1.42156002    -0.36736733     0.63911863     0.38426231
O       5.92931700     7.98590098     1.39914200     0.63607830     0.11171936    -1.40311656
O       5.91876203     3.00379999     1.32719401     0.33280269     1.35608001     0.47649887
