# total energy = -19959.32640504 eV

CRYSTAL
PRIMVEC
        7.60600008     0.00000000     0.00000000
        0.00000000     7.60600008     0.00000000
       -1.89786986    -1.89786986     4.85670466
PRIMCOORD
24 1
Ti      3.70208298     6.77817001     1.28285202     1.30666751    -0.33501281     0.11359344
Ti      3.74773901     2.98264100     1.27539099     0.37551516    -0.05136423    -0.03603582
Ti      0.03892898     6.64733797     1.16034802    -0.48660305    -0.22480860     0.71066860
Ti     -0.02097600     2.79854399     1.24691898    -0.35640028    -0.30043094    -1.30963225
Ti      5.79643921     2.72135021     3.63124181    -3.22951528    -0.47156981     0.21770824
Ti      5.80803322    -1.04879280     3.56443381    -0.63267133     0.14381548    -0.07790394
Ti      1.73456323     2.87213625     3.58163382     2.58031201     0.07624146     1.75987320
Ti      1.88597523    -0.89479777     3.69785982     0.98592201    -0.06453163     0.66118771
O       3.82168598     4.85022002     0.81329998     0.10426984    -0.16394183     0.09094329
O       3.66799899     1.00400599     0.89405798     0.31918149    -0.19098547    -0.91154640
O       0.23544699     4.75415699     0.92129399    -1.56644595    -0.76962839    -1.72348334
O       0.06402600     0.91141701     0.73312401     0.34958608     0.13692261    -0.00333009
O       5.89696823     4.59397223     3.75589581    -0.63437263     0.76702823     1.73865979
O       5.86898021     0.78733325     3.73066379    -0.48712807     2.24471505     2.57232462
O       1.76802924     4.84378422     4.01129283     0.26215543    -0.82926232     0.72062392
O       1.65061021     1.03279921     4.17574583     0.72399438    -0.49065871    -0.29302334
O       3.69443721     2.52898623     3.11355982     0.53469992     1.08737469     0.93776035
O       3.91653724    -0.88312476     3.39993880    -2.05931556    -0.35717393    -1.19733645
O      -0.09305476     2.63519422     3.31620280     2.58501893     0.43896332    -1.70839970
O       0.14843623    -0.84855276     3.13783181    -1.38696360    -0.48640533    -0.30640465
O       5.73835698     6.76419597     1.70813802     0.51831968    -0.70240867    -1.90773663
O       5.75984401     2.77140101     1.57597600    -0.36224209     0.53533473     0.05242661
O       1.91043502     6.63884399     1.66172298     0.80909484     0.32655773    -0.10627068
O       1.82416902     2.99818701     1.67846001    -0.25307866    -0.31877012     0.00533376
