# total energy = -19960.81064983 eV

CRYSTAL
PRIMVEC
        7.60600008     0.00000000     0.00000000
        0.00000000     7.60600008     0.00000000
       -1.89786986    -1.89786986     4.85670466
PRIMCOORD
24 1
Ti      3.73203298     6.63511599     1.11524000     1.10898123     1.54424833     1.66457548
Ti      3.88250099     2.97492401     1.17585699     0.06926066    -2.14115277    -0.02638313
Ti     -0.03457501     6.64231698     1.19044900    -1.11907744     0.68249316    -0.21487231
Ti      0.03749300     2.90592998     1.24502601    -0.78591119    -0.76456615     0.22044390
Ti      5.75048821     2.74313823     3.70974679    -1.60733037     1.25068994    -0.45569812
Ti      5.72506024    -0.99593778     3.67855581    -0.87423145    -0.49249911    -0.05975015
Ti      1.90347824     2.90594925     3.60269984     1.02576204    -1.57839130    -0.48785466
Ti      1.84296624    -0.99716277     3.56032380     0.69815658     1.74602266     1.27997688
O       3.82348698     4.77955199     0.77495997    -0.10873559     1.79095425    -0.51285222
O       3.82379401     1.06943701     0.65759698     0.00029182    -1.85794051     0.56967414
O      -0.11093503     4.76688799     0.84672800     0.43475314    -0.86824489    -0.01993326
O      -0.30450701     0.93977800     0.88099302     1.15009781     0.08484978    -0.27685006
O       5.74158824     4.69534920     4.09414479    -0.32227196     0.60147381     0.74677513
O       5.88917424     0.93787724     4.18783779    -0.03570467    -1.01695010    -0.20711555
O       1.97696721     4.82916024     3.94332383    -0.04019176    -1.91090731     0.78588317
O       1.75448225     1.01508923     4.08580279     0.37648755     0.51047370    -0.98936858
O       3.89684725     2.74975724     3.36407783    -1.39296790     0.14508278    -0.79343759
O       3.80875220    -0.98362679     3.09584281    -0.61711101     0.38371106     0.30981085
O      -0.06697775     2.80750323     3.31093680     2.27329518     0.52566404    -1.21764997
O      -0.05878678    -1.24543480     3.32579684     0.96600855     1.03546719    -0.71510170
O       5.70548899     6.63019200     1.75384200    -0.12250360     0.07946409    -0.97531415
O       5.67373603     2.98218099     1.57556700     1.17624851    -0.24466832     0.80614681
O       1.87888097     6.59837601     1.59336101    -0.32860048     0.54672498    -0.53443382
O       2.00212302     2.93734501     1.62341701    -1.92470617    -0.05199981     1.10332865
