# total energy = -39033.63015219 eV

CRYSTAL
PRIMVEC
        7.60600008     0.00000000     0.00000000
        0.00000000     7.60600008     0.00000000
       -3.79573973    -3.79573973     9.71340985
PRIMCOORD
46 1
Ti      1.99588445     4.90901547     6.04854862     1.43401815    -0.16930258     0.68621483
Ti      3.77448898     6.80436402     1.20163702    -0.81832356     1.22180616    -0.99031937
Ti      1.75962443     0.79173246     6.07089964     2.88070619     0.64460408     1.00767124
Ti      3.63542998     2.97407298     1.33541298     1.55898641    -1.19192993    -0.54024862
Ti     -1.77941756     4.58582846     6.12705762    -1.39471600     0.73906002    -0.28839021
Ti     -0.16973800     6.61430001     1.15632902     0.36287715     0.15241454     0.20217260
Ti     -1.79333556     0.70758645     6.04369961    -2.37316484     0.52974258    -0.72282761
Ti     -0.07654300     2.90341401     1.22016002    -1.47498484     0.00553713    -2.44820482
Ti      3.98996747     0.92207247     8.44766063    -1.68057212     0.96007882    -1.56264843
Ti      5.60768100     2.78004300     3.60790202    -0.64790847     0.56017802     0.30517617
Ti      3.86120748    -2.79779854     8.62688862    -0.48852315    -0.44239652    -1.67943030
Ti      5.68842900    -1.01611801     3.71804900     0.04591503    -1.06107950    -1.16341613
Ti      0.01984145     0.96167747     8.43333463     2.29360305     1.06319243     2.75062298
Ti      1.65562099     2.74745299     3.57010199     1.14927608     0.06445501     0.48538281
Ti      0.07349145    -2.69377356     8.55331161     0.52398536    -0.62476982     0.36516003
Ti      1.97558600    -0.96368099     3.42804700    -0.82415200     0.72936567     0.80642603
O       2.15116643    -0.93648355     5.69807664    -0.35814709    -0.99918402    -1.70089310
O       4.01506698     0.97367598     0.92696799    -0.69589710     0.68291533    -1.36569440
O      -1.79478254     2.77124146     5.66819464     0.38419443    -0.10216796    -0.49100118
O       0.19884602     4.76776298     0.83398001    -0.37262703    -0.26638670    -0.00045431
O      -2.05879457    -1.06290257     5.71211762     0.53398593    -0.41409483    -0.55117864
O       7.27695100     0.93136000     0.78157400     0.49077852     0.35989261     0.05493138
O       3.86435645     2.77116044     8.89294661     0.30499311     1.57401631     0.38674600
O       5.64614700     4.72702602     4.05944902    -0.13352515    -1.50292863     0.33586127
O       3.87274243    -0.85273257     8.90310465     0.13410493    -0.88310561     0.49615496
O       5.88407001     0.72655899     4.12997501     0.32751238     3.57546223    -0.47320066
O      -0.04305656     2.94038747     8.93765262    -0.08611168    -0.61331735    -0.22410823
O       2.11510501     4.51105402     4.11417801    -0.90187519     0.69740453    -0.36460288
O       0.04049947    -0.87405953     9.16734761    -0.33416280     0.93554483    -1.57040005
O       1.64825600     0.88714597     4.13653798    -0.00237133     1.07409546    -0.83578804
O       1.99439243     1.16411047     8.02408064    -1.51716509    -0.38333748     0.26312705
O       3.77831599     2.66100998     3.18950898    -0.29121508     0.09162901     1.41678044
O       2.10558744    -2.56791458     8.00965961    -2.64098415    -0.68207381     1.36003874
O       3.86928002    -0.60445298     3.28037501    -2.28531355    -1.17327451    -0.42189427
O      -1.73487354     0.88354947     7.89162462    -2.70196252     0.78251785     2.56432231
O      -0.18009299     3.08088498     3.01669901     0.95884031    -0.42431188     2.94823701
O      -1.93763754    -2.58140653     7.97122965     1.92978307    -0.76643585     1.44855877
O      -0.01943800    -0.91351498     3.14825602     0.20824169    -1.10097044    -0.12488624
O       3.81921747     4.73892944     6.55731963     0.82090726    -1.27510386    -1.03486426
O       5.50224899     6.49842501     1.56726500     2.76470003    -1.10614478     0.44035840
O       3.77675047     0.89199747     6.43622663     1.35049043     0.48276285     0.36887219
O       5.57209600     2.89630600     1.47270801     0.39953750     0.88272766     1.23626168
O       0.13381046    -2.56298857     6.56609265    -0.99561867    -1.19481934    -0.03955309
O       1.79593900     6.96864498     1.43131402     0.88986351    -1.08400552     2.02339209
O       0.02534145     0.48760546     6.67034062     0.96992332    -0.38331691    -3.01157513
O       1.77647899     2.62231098     1.65440700     0.30209779     0.03505520    -0.34688900
