# total energy = -4964.16693758 eV

CRYSTAL
PRIMVEC
        5.54499021     0.00000000     0.00000000
       -0.00000766     2.66980993     0.00000000
       -2.77252617    -1.33497956     5.97373922
PRIMCOORD
6 1
Ti     -0.00023689     2.00244597     1.49343449    -0.01395750    -0.01601695    25.68488351
Ti      2.77269321    -0.66761577     4.48030399     0.01395750     0.01601695   -25.68488351
O       0.00005901     0.66743968     0.97307316     0.01168001     0.01513095   -19.73672027
O       2.77239714     0.66739041     5.00066537    -0.01168001    -0.01513095    19.73672027
O      -0.00002265    -0.66747003     3.95994266    -0.00168742    -0.00040521    -1.88684461
O       2.77247874     2.00230012     2.01379588     0.00168742     0.00040521     1.88684461
