# total energy = -19516.73414314 eV

CRYSTAL
PRIMVEC
        5.17600016     0.00000000     0.00000000
        0.00000000     5.50899976     0.00000000
        0.00000000     0.00000000     9.26300011
PRIMCOORD
23 1
Ti      1.85063302     3.20781603     3.39811700    -0.38189766    -1.20589205     3.09871962
Ti      3.47615498     2.28868399     5.88492299    -0.75447122    -0.13393036    -3.28853704
Ti      4.28328301     2.15417099     1.46953501     0.62931553    -0.51964817    -0.92707124
Ti      0.76189797     3.49380098     7.76823001     1.13823088    -0.04781251     1.79148364
Ti      2.02712300     0.12243802     1.54219200    -0.85135608     0.19216329    -2.74067666
Ti      3.24596500     5.12324198     8.00550499    -0.82537970     1.14230608     0.42422755
Ti      0.76562000     0.55966802     6.00273103     0.83793029     1.06456206    -3.92986656
Ti      4.42293997     4.97752498     3.27017200     1.89709688    -0.42190584     2.98185702
O       1.77445901     1.86268900     4.76187398     0.49547542     0.28782276     0.20467403
O       3.63504400     3.62480997     4.45341402    -0.26420640    -0.84401943     1.19267915
O       4.89130899     2.90330701     9.15149701    -0.29268549     0.60794528     0.47254631
O       3.51562499     0.60632002     0.24034500     0.87044396     0.15481029     0.55562897
O       1.60532899     4.84896200     8.98021302    -0.30236416    -1.02647578     0.67019891
O       4.39333701     0.83493798     4.85348800    -0.41504588    -0.21252284    -0.80651037
O       1.03388503     4.65479999     4.26953800     0.12800499     0.99451258     0.87376891
O       0.22525202     3.37822798     2.47422200    -0.62963872    -0.31641704    -1.04884284
O       5.11616799     2.04004699     6.86594200     0.11608664     0.02876166    -0.34687074
O       2.47787898     1.86290702     1.98035801     0.03391081     0.81871206     0.89717058
O       2.69889801     3.53980601     7.04531001    -1.54044361    -0.21685669     0.85604140
O       0.19140002     0.66410099     2.02719899     0.34829848    -0.14440735     0.09595695
O       4.98055299     4.86440498     7.00480297    -0.83269346    -0.80078118     0.67006624
O       2.44589001     0.92525801     6.97602399     0.20805889    -0.50943857    -0.14070676
O       2.98050699     4.20920798     2.25798297     0.38732964     1.10851200    -1.55593708
