# total energy = -4974.81036877 eV

CRYSTAL
PRIMVEC
        2.79818029     0.00000000     0.00000000
        2.06321391     3.86852544     0.00000000
       -0.00001327    -0.00005977     4.53698523
PRIMCOORD
6 1
Ti      2.43069024     1.93423274     2.26849271     0.00000000     0.00000000     0.00000000
Ti      0.00000000     0.00000000     0.00000000     0.00000000     0.00000000     0.00000000
O       1.80117745     0.75390695     0.88419165   -12.10533179     4.78721511     7.18305426
O       3.06020306     3.11455863     3.65279382    12.10533179    -4.78721511    -7.18305426
O       0.62950717     1.18030177     3.15268524    12.10459105    -4.78721563     7.18205307
O       1.43369317     2.68816388     1.38430018   -12.10459105     4.78721563    -7.18205307
