# total energy = -19518.45326772 eV

CRYSTAL
PRIMVEC
        7.60600008     0.00000000     0.00000000
        0.00000000     7.60600008     0.00000000
       -1.89786986    -1.89786986     4.85670466
PRIMCOORD
23 1
Ti      3.82192199     6.52872099     1.20833201    -0.71867965     0.79459330     0.54282641
Ti      3.75986802     2.84285698     1.22593102     0.32961452     0.02135893     0.93572917
Ti      0.00946402     6.71893502     1.26747302     0.60190704    -0.09147243    -0.53346914
Ti     -0.04448100     2.94239998     1.12803301     0.11346591    -0.76069226    -0.82175059
Ti      5.68197923     2.88986522     3.68265683    -0.55058163     0.10534765    -0.92953693
Ti      5.76284720    -0.93913875     3.61678580    -1.59315073    -0.37885733     0.70036645
Ti      1.97820125     2.86190021     3.64044880     0.86391232    -0.56058760    -0.80221739
Ti      1.89687824    -1.01205477     3.73818980     0.82045012     0.19219286    -1.83634607
O       3.64659297     4.74981398     0.69006401     0.04226432    -0.45491702     1.67113643
O       3.73087599     0.89942299     0.67399602     0.26288125     0.31077630     2.07429070
O       0.01576398     4.80092102     0.75924299     0.25760406     0.33904739     0.18140682
O      -0.05054997     0.98081500     0.88561300     0.29261633    -1.21321816    -1.09130514
O       5.74111923     4.67366722     3.84147483     0.64791721     1.69749204     1.35561722
O       5.74505324     0.94344922     3.99164184     0.37041511    -0.13657268     0.03382956
O       1.86877025     4.66785321     3.98350081    -0.34199361     0.98564716     0.28959631
O       1.81628825     0.97335921     4.18360580    -0.11519781    -0.54191933    -1.59260154
O       3.85055625     3.02718725     3.32656081    -1.22878182    -1.12847122    -1.29776403
O       3.84760624    -1.03360377     3.31084684    -0.64533505     0.09678844    -0.84032090
O      -0.05659477    -1.20789777     3.24361884     1.57243277     1.08094488    -0.97913764
O       5.69132403     6.62350701     1.49885900     0.33656653     0.17830350     0.87761194
O       5.79892698     2.86899098     1.58708401    -1.66694347     0.00354041     0.61550793
O       1.97129802     6.74248298     1.57160600    -1.22135647    -0.20370729     0.76586070
O       1.73901001     2.89327900     1.66415699     1.56997222    -0.33561830     0.68066948
