# total energy = -19518.92974389 eV

CRYSTAL
PRIMVEC
        7.60600008     0.00000000     0.00000000
        0.00000000     7.60600008     0.00000000
       -1.89786986    -1.89786986     4.85670466
PRIMCOORD
23 1
Ti      3.78466601     6.70905899     1.18291002     1.01786747    -0.65309104    -0.26416372
Ti      3.73994302     2.80883802     1.21827800     0.32084345     0.70440051     0.06208394
Ti      0.01639100     6.66623198     1.24437999    -0.48070931    -0.08647369    -0.59021109
Ti     -0.05739202     2.86533902     1.17494400    -0.26370786    -0.10967019    -0.00331852
Ti      5.53824723     2.87366224     3.62042384     0.23103067    -0.15295344     1.19039292
Ti      5.78097422    -0.97189080     3.65104679    -0.10438837    -0.01008336    -0.55728759
Ti      1.90786121     2.85262220     3.62151283     0.06306533    -0.11745832     1.88075083
Ti      2.01610923    -0.93569576     3.56554784    -0.33153436    -0.11215336     0.60778870
O       3.85898498     4.74043198     0.88753598    -0.84690293    -0.47059690    -0.17865111
O       3.83926302     0.97832898     0.70536798     0.24242375    -0.53133486     0.41467796
O       0.04371798     4.77185702     0.83676999     0.31663404     0.21715263     0.11503840
O       0.01625400     0.97456500     0.68496201    -0.08042105    -0.45413078     1.01659143
O       5.67616225     4.75883724     4.01134379     0.35817537    -0.45560608    -0.04194036
O       5.62335724     0.99933425     4.13975183     0.58255691    -0.29443333    -1.42563892
O       1.96733020     4.72780920     4.05881179    -0.45588761    -0.02758666    -0.42548405
O       1.88899625     0.90101021     4.11168882    -0.61464969     0.95286198    -0.18488115
O       3.71073323     2.68910024     3.46268980     0.52052646     0.56613296    -1.60036473
O       3.84441123    -1.03945679     3.16920979     0.05853119     0.35799848     0.11284782
O       0.07585121    -1.04934378     3.16489584     0.06513018     0.26449694     0.40887060
O       5.78835799     6.69064700     1.64359400    -0.43804055     0.37766228    -0.33221622
O       5.65199801     2.68777402     1.72050500     0.73802232     0.49958456    -0.23614691
O       1.98920702     6.96699802     1.55060698    -0.76218633    -0.85900871     0.59566389
O       1.79992101     2.70159703     1.74869803    -0.13637985     0.39429013    -0.56440286
