# total energy = -4985.13813959 eV

CRYSTAL
PRIMVEC
        3.48035349     0.00000000     0.00000000
        1.02112332     3.32718614     0.00000000
       -2.25076981    -1.66361628     4.49367292
PRIMCOORD
6 1
Ti      0.76573598     2.49551716     1.12341797     0.00151284    -0.00140485    -0.00063969
Ti      1.48497079    -0.83194746     3.37025428    -0.00151284     0.00140485     0.00063969
O       0.25531723     0.83179192     0.73198247     0.00072222     0.00166788     0.33483900
O       1.99538939     0.83177770     3.76168977    -0.00072222    -0.00166788    -0.33483900
O      -0.25529043    -0.83177211     2.97881879     0.00166685     0.00068109     0.33466494
O       2.50599703     2.49534163     1.51485351    -0.00166685    -0.00068109    -0.33466494
