# total energy = -19073.91739689 eV

CRYSTAL
PRIMVEC
        5.17600016     0.00000000     0.00000000
        0.00000000     5.50899976     0.00000000
        0.00000000     0.00000000     9.26300011
PRIMCOORD
22 1
Ti      2.02311199     3.39540301     3.20474098    -0.16117249     2.63845933     1.01862594
Ti      3.47817999     2.22542000     5.89319599     0.52178733     0.11550017    -0.86418100
Ti      4.48400698     2.37129401     1.26089498     1.36471610    -1.21112348    -1.41375117
Ti      0.63774601     3.07278301     8.09787600    -1.61139914    -0.47472712     1.49466613
Ti      1.92853600     0.63830201     1.40432900    -1.14623704    -1.92532427    -2.36780794
Ti      3.06554598     4.98070502     8.07649899    -0.42509787     1.03501879     2.22223228
Ti      0.60011499     0.09394198     6.01714200     0.62392392     1.34001241    -0.44695894
Ti      4.58745002     4.93991101     3.44782098    -0.01009210     0.40652627    -0.34867231
O       3.65469902     3.42416501     4.35166800    -0.37919646    -0.30906857     1.16772118
O       0.93136498     1.88063102     0.22186598    -0.18752734     0.75869657    -0.80799749
O       4.19705902     3.57309602     8.98374798    -0.87417668     0.37966672    -0.00217593
O       3.43295798     0.79265698     0.07201600     0.63125131     0.41414728    -0.39968662
O       1.59600599     4.79205598     0.03485802    -0.18756642    -1.11431112    -1.55928209
O       4.31770800     0.79928001     4.72742999    -0.46902467    -0.07686110     1.23411429
O       1.16482401     5.00983998     4.24194903     0.15621849    -1.51840924     1.46206298
O       0.39383900     3.55388202     2.20767901    -0.74018334    -0.17189065     1.06978706
O       4.94618298     1.77712702     6.93379601     0.33279549    -0.54320565    -0.05871091
O       2.77819898     2.19578798     2.07367001     0.41221921    -0.74404719     0.38940863
O       1.76094001     3.74771599     6.93532798     2.53865550     2.07834610    -2.43322326
O       0.10521901     0.70846102     2.13035399     0.16629413     0.56860405     0.39269373
O       2.24360798     1.10846198     6.67533500    -0.46975975    -2.00742348     0.16945196
O       2.95359901     4.80066400     2.35072399    -0.08642869     0.36141445     0.08168423
