# total energy = -19961.80972535 eV

CRYSTAL
PRIMVEC
        7.60600008     0.00000000     0.00000000
        0.00000000     7.60600008     0.00000000
       -1.89786986    -1.89786986     4.85670466
PRIMCOORD
24 1
Ti      3.78957100     6.54967302     1.23161999    -0.48071111     1.09958744    -0.23859975
Ti      3.82122798     2.86242198     1.22922298    -1.00443113    -1.14520834    -0.58849694
Ti      0.00448599     6.70971400     1.18166100     0.52436717     0.01097810     0.75281800
Ti     -0.01162698     2.90448300     1.21167498     0.62750727    -0.08933147    -0.27344335
Ti      5.71510324     2.87670924     3.63348382     0.25539934    -0.37276099     0.10429581
Ti      5.73099322    -0.96418079     3.61187281     0.07916841     0.58220107    -0.03677142
Ti      1.90682021     2.83135922     3.63600879    -0.44557389    -0.29615571    -0.24711370
Ti      1.91275425    -1.02192176     3.65380079    -0.20642829     0.42607772     0.66346030
O       3.63583702     4.66474800     0.78289499     0.54357460     0.95258045    -0.00952466
O       3.68419499     0.85488003     0.84114200     0.65572257     0.95699786    -0.16692302
O       0.04123598     4.82829800     0.74067500    -0.28581782     0.01687518     0.10902176
O      -0.00812800     0.99699597     0.73526501    -0.18032953    -0.28938985     0.38032132
O       5.85458923     4.82303121     4.02786979    -0.16975021    -0.74724847     0.09023624
O       5.71855321     1.00644623     4.07908679    -0.19585514    -0.10071683    -0.66962401
O       1.77404720     4.70417921     4.08739683     0.37817188    -0.39632619    -0.04029871
O       1.82017320     0.89427325     4.10778883     0.74645529     0.09902916    -0.07433448
O       3.80628623     2.98718023     3.25881183     0.03848172    -0.53861597     0.00361549
O       3.78571722    -1.05746278     3.20895180     0.78600761    -0.03337987     0.68970279
O       0.06323224     2.70463223     3.13517084    -1.94541282     0.34092995     0.72550336
O       0.05769022    -0.99015276     3.17524781    -1.16961429     0.33513159    -0.34746158
O       5.67621099     6.64399299     1.63843400     0.92868641     0.04275746    -0.32976724
O       5.65493198     2.97765297     1.62047600     0.64888651    -0.19340334     0.11178184
O       1.95665802     6.68994098     1.68108002    -1.40001916    -0.20883999    -0.39913486
O       1.82348199     2.97830201     1.66049598     1.27151434    -0.45176922    -0.20926294
