# total energy = -19517.19271775 eV

CRYSTAL
PRIMVEC
        7.60600008     0.00000000     0.00000000
        0.00000000     7.60600008     0.00000000
       -1.89786986    -1.89786986     4.85670466
PRIMCOORD
23 1
Ti      3.74005499     6.75907899     1.18402298     1.76228130     0.28310247     0.63902042
Ti      3.92417999     2.94399899     1.18357001     0.23375424    -0.10388392     1.56297933
Ti     -0.00748400     6.64760198     1.22105200    -1.84902881    -2.16841727     0.60916450
Ti      0.04502198     2.69257101     1.05239702     0.51592726     1.73359600     1.46794387
Ti      5.68718724     2.70829720     3.67391979    -0.38298370     0.73626112     0.10823551
Ti      5.65898521    -1.19443476     3.68661079    -0.88080319     0.31592519    -1.73242538
Ti      1.92020522     2.92044923     3.61803481     1.67589940     0.09153593    -0.14975036
Ti      1.86284320    -0.86094175     3.63810979     0.28885069    -0.09132768     0.43950685
O       4.11437201     4.80467500     0.72207601    -1.38853532    -0.04501335     0.50545104
O       3.86130601     1.00600702     1.00729001    -0.11628255     0.65247346    -1.70943482
O       0.26810702     4.71995801     0.87966701     0.06495843     0.61611908    -0.83530776
O      -0.06746798     0.83651101     0.69368401     0.05225332     0.36227063     0.18180971
O       5.37987321     4.57127323     4.10699279     1.44819008     1.45982124     0.09604874
O       5.40775720     0.90180122     4.13379980     0.79669826    -0.04601197    -1.88452599
O       2.04262524     4.82393324     4.00640779    -1.36811870     0.22622554     0.23784873
O       1.75230622     1.04229524     4.04704183    -0.14965034    -0.46741130     0.56564368
O       3.89458221     2.94222122     3.15420381    -1.43648667    -0.59608504    -0.86206267
O       3.80884724    -0.96031177     3.13035882    -1.17820255    -0.20923362     0.30784472
O      -0.10559975    -1.07933278     3.40911881     0.29434386    -0.07726785    -0.78103510
O       5.63316898     6.79944098     1.49901902     1.43412537    -0.73011078     1.26920009
O       5.94035500     2.91920201     1.63317498    -1.55019092    -0.50837413     1.03276856
O       1.73023202    -0.42133601     1.83913299     0.91451217    -1.53651522    -1.14984790
O       1.80234199     2.73973599     1.69826997     0.81848811     0.10232172     0.08092499
