# total energy = -19896.55494563 eV

CRYSTAL
PRIMVEC
        6.85553898     0.00000000     0.00000000
        3.43361350     6.43795560     0.00000000
        0.00000000     0.00000000    12.69711461
PRIMCOORD
24 1
Ti      4.51955936     3.81512653     4.71053898    -0.22256968    -1.94644331     0.23119548
Ti      5.76959330     2.62282923     7.98657576     0.22256968     1.94644331    -0.23119548
Ti      7.31131829     2.62283153     1.63796766    -0.16030243    -1.49707217     0.51754346
Ti      2.97783459     3.81512454    11.05914715     0.16030243     1.49707217    -0.51754346
Ti      2.80275288     0.59614895     1.63801859    -0.22256968    -1.94644331    -0.23119548
Ti      7.48639992     5.84180707    11.05909629     0.22256968     1.94644331     0.23119548
Ti      1.26102777     0.59614647     7.98652483     0.16030243     1.49707217     0.51754346
Ti      9.02812501     5.84180948     4.71058984    -0.16030243    -1.49707217    -0.51754346
O       3.37885512     2.26691366     6.47924042     1.70992282     1.86936521    -0.84333912
O       6.91029763     4.17104216     6.21787432    -1.70992282    -1.86936521     0.84333912
O       2.46703579     2.26693958     0.13072392     0.21147203    -1.23932155     1.85548639
O       7.82211704     4.17101629    12.56639042    -0.21147203     1.23932155    -1.85548639
O       5.19349101     0.95206432     0.13068271    -1.70992282    -1.86936521    -0.84333912
O       5.09566173     5.48589143    12.56643163     1.70992282     1.86936521     0.84333912
O       6.10531042     0.95203846     6.47928156    -0.21147203     1.23932155     1.85548639
O       4.18384226     5.48591738     6.21783311     0.21147203    -1.23932155    -1.85548639
O       2.33759593     3.91592950     3.42980742     0.61794508     3.24196946     3.00616270
O       7.95155681     2.52202631     9.26730725    -0.61794508    -3.24196946    -3.00616270
O       5.02192399     2.52196619     2.91879027     0.39402736     2.19106227     2.15810638
O       5.26722876     3.91598963     9.77832420    -0.39402736    -2.19106227    -2.15810638
O       0.62078931     0.69695167     2.91874975     0.61794508     3.24196946    -3.00616270
O       9.66836342     5.74100408     9.77836473    -0.61794508    -3.24196946     3.00616270
O       3.55042214     0.69701180     9.26734771    -0.39402736    -2.19106227     2.15810638
O       6.73873059     5.74094396     3.42976689     0.39402736     2.19106227    -2.15810638
