# total energy = -4979.10368815 eV

CRYSTAL
PRIMVEC
        2.88992391     0.00000000     0.00000000
        2.13086027     3.99536234     0.00000000
       -0.00001371    -0.00006173     4.68573885
PRIMCOORD
6 1
Ti      2.51038501     1.99765021     2.34286952     0.00000000     0.00000000     0.00000000
Ti      0.00000000     0.00000000     0.00000000     0.00000000     0.00000000     0.00000000
O       1.86023245     0.77862521     0.91318154    -8.80559939     3.68803159     5.20327504
O       3.16053758     3.21667531     3.77255756     8.80559939    -3.68803159    -5.20327504
O       0.65014674     1.21900019     3.25605197     8.80455064    -3.68838461     5.20325807
O       1.48069950     2.77630040     1.42968707    -8.80455064     3.68838461    -5.20325807
