# total energy = -19961.25005673 eV

CRYSTAL
PRIMVEC
        7.60600008     0.00000000     0.00000000
        0.00000000     7.60600008     0.00000000
       -1.89786986    -1.89786986     4.85670466
PRIMCOORD
24 1
Ti      3.77737903     6.76415798     1.15015199     0.06873693     0.12779802     1.47760402
Ti      3.85742201     2.92975402     1.23464598    -1.22783823    -0.63122817    -1.42171285
Ti     -0.08810002     6.53166401     1.18783502     0.36126070     0.74203479     1.93827929
Ti     -0.05219000     2.79383601     1.19722903     1.66371622    -0.91470680    -0.43948011
Ti      5.67243621     2.89961923     3.63047582     1.02922660    -1.75121681     0.68927496
Ti      5.64433023    -1.02889780     3.64756481     1.18232608     1.15980733     0.86150963
Ti      1.91640922     2.98596323     3.65850380    -0.51329240    -2.20030128    -1.11914686
Ti      1.97311125    -0.91854979     3.60006782    -1.28691963     2.05458730    -0.06715441
O       3.92635697     4.78658899     0.75741500    -0.20798921     0.51727118     0.30177306
O       3.96000402     1.03189199     0.73392699    -0.39846920    -0.88848668     0.65035744
O       0.04578098     4.61649502     0.80418802    -0.12138980     0.99346409    -0.27483895
O      -0.04420800     0.79088302     0.79795902     0.18560184     0.90118870     0.30289406
O       5.34373622     4.68270721     4.15659882     0.52089798    -0.34583947    -1.10574909
O       5.74763521     0.88307623     4.06493183    -0.27248047     0.05661880     0.33641355
O       2.04901321     4.88055823     4.11060279    -0.12474637    -1.61815343    -0.64716310
O       1.90453321     1.02573422     4.04446981    -0.13024622     0.02385599     0.11825871
O       3.89540222     2.77398022     3.15202683    -1.51923791     0.36323145     0.74287914
O       3.76828120    -0.78484580     3.20890481     0.41433060    -0.09953541    -0.46936071
O       0.04843623     2.96350722     3.22610884    -0.13711133     0.39828768     0.41845722
O      -0.08703775    -1.05017580     3.23821980     0.99822217    -0.23058047     0.17880358
O       5.70721501     6.50276802     1.74688300    -1.26197452     0.01105883    -1.40633456
O       5.74512399     2.71575998     1.70105398     0.11423313     0.48154363    -0.61576967
O       1.90164703     6.53297002     1.64654401     0.31507878     0.28213574    -0.74022705
O       1.93701199     2.72887199     1.63889401     0.34806451     0.56716526     0.29043321
