# total energy = -39033.03494263 eV

CRYSTAL
PRIMVEC
        5.93200024     0.00000000     0.00000000
        0.00000000     9.29399984     0.00000000
        0.00000000     0.00000000     9.29399984
PRIMCOORD
46 1
Ti      4.39294197     6.89667000     7.07942400    -0.01025228     0.29227592    -1.62214455
Ti      4.45405999     6.99020297     2.46519598    -0.32767719     0.61496208    -0.80255524
Ti      4.53530097     2.22878800     6.91278101    -0.68623437     0.67786209     0.10245104
Ti      4.12477399     2.63402998     2.11414498     1.49002965    -1.10032895     0.75256346
Ti      1.43006702     6.92404698     6.99428103     0.53631304     0.77415868    -0.42966492
Ti      1.49235398     6.87735301     2.35376099    -0.11594677     1.12249829    -0.78296677
Ti      1.50171402     2.35444299     7.00068100     0.99075594     0.59474472    -0.24245358
Ti      1.29834300     2.09773397     2.44645400     0.55526362     0.94848802     0.27162352
Ti      2.98827102     4.58171601     4.59304998    -0.67304872     0.58601196     1.94609390
Ti      3.02280201     4.86861702     9.16439401    -0.10929686    -0.89367620     1.34637281
Ti      2.95980700     0.02417398     4.74176699     1.17156730    -1.24520912    -0.98540959
Ti      3.03289601     9.22289001     0.02610500    -0.97059180    -1.18399087    -1.39335717
Ti      0.02762300     4.63239500     4.52986802     1.68739532     0.22210791     2.44579878
Ti      0.05635801     4.69238301     0.00264599    -0.31616482    -0.13938290     0.77709591
Ti      0.11784899     9.16699201     4.80460102    -1.09763494    -0.99940154    -0.68206841
Ti      0.03264801     0.10201701     0.10071201     0.30845793    -1.72734025    -1.05062050
O       4.24157601     5.54031700     5.61616699     1.62067928    -0.55735469     0.37000734
O       4.53958202     5.75189201     1.01194401    -1.17034345    -1.79176363    -1.29013942
O       4.55215199     0.90412097     5.62092202    -0.44313879    -0.94586241    -1.52559188
O       4.39155701     0.92339599     0.79221999     0.52202181     1.37841751     0.68843704
O       1.45911599     5.43903099     5.53946000    -0.02335334     0.85094702     0.75877268
O       1.49528700     5.61496899     0.85040700     0.68507840    -0.68700930     0.98990825
O       1.51875300     0.97847302     5.51708199    -0.55219526    -0.70515101    -0.75826823
O       1.41521798     1.13541800     0.76680498     0.51249073    -0.55787303     0.65067806
O       4.50728998     8.16060700     8.42930902    -0.79093308     2.31099374     0.54609403
O       4.43228101     8.46170102     3.68993698     1.30199607     0.33777546     0.55465941
O       4.44400901     3.86012499     8.46561402    -0.03776206    -0.84817974    -0.19374221
O       4.53262900     3.83908898     3.77352402    -2.61943444    -2.59445283    -2.45755953
O       1.52162802     8.61421599     8.05286402     0.35135603    -1.19989315     1.85046066
O       1.53831800     8.34387299     3.72637200    -0.80826232     1.30476309     0.57494850
O       1.52432698     3.89535899     8.22066999     0.00296525    -0.46151936     1.21257024
O       1.49457102     3.61668700     3.83803898    -0.44086825    -0.86930727    -1.77286448
O       2.88232100     6.25391199     8.04900198     0.75652116    -0.16463474    -0.68987197
O       2.91512603     6.19550897     3.37394900     0.76146951    -0.89331341    -0.75987799
O       3.02892501     1.41333999     7.83727499    -0.14820615     0.54634291     0.08415172
O       2.94634198     1.27072000     3.03297899     0.33047507     1.78965096     0.19116545
O       0.03663801     6.14977398     8.08835700     0.18532673    -0.03553034    -1.55043826
O       0.00301202     5.82838601     3.09765598     0.25331418     2.11341801     0.06299102
O       0.00556800     1.21448502     7.73157300    -0.37031664     1.99359762     0.21994330
O       3.05791001     7.66665898     5.91833599    -0.28089210     1.74278333     0.53765335
O       2.94049103     7.93231401     1.48039601     0.05752023     0.12700612    -0.76755403
O       2.88028198     3.13893302     5.91582398     0.81352485    -0.35351010     1.08768683
O       0.20390401     7.68959199     5.85950698    -2.00465543     0.55729247     0.47280651
O       0.11403299     7.90181202     1.32910402    -0.13046245     0.44253690     0.92089365
O       5.92659702     3.24619699     6.00053499    -0.31437250    -0.89883846     1.27256670
O       5.89646202     3.26665302     1.63616499    -0.45247859    -0.47511253    -0.93124645
