# total energy = -19872.93770991 eV

CRYSTAL
PRIMVEC
        7.33662918     0.00000000     0.00000000
        0.00002213     2.60279736     0.00000000
        0.00000000     0.00000000    11.67195822
PRIMCOORD
24 1
Ti      2.65918844     1.54241540     4.33021335    -0.94565518     0.70255574    -0.27031586
Ti      4.67746306     1.06038221     7.34174522     0.94565518    -0.70255574     0.27031586
Ti      6.32737792     1.06038316     1.50571930    -0.94414723    -0.70277300     0.27198913
Ti      1.00927364     1.54241455    10.16623937     0.94414723     0.70277300    -0.27198913
Ti      2.65917743     0.24101677     1.50576611    -0.94565518     0.70255574     0.27031586
Ti      4.67747413     2.36178094    10.16619256     0.94565518    -0.70255574    -0.27031586
Ti      1.00926257     0.24101577     7.34169841     0.94414723     0.70277300     0.27198913
Ti      6.32738899     2.36178194     4.33026016    -0.94414723    -0.70277300    -0.27198913
O       2.32209731     0.91648927     5.95611108     9.00126736    -1.09294114     3.91563087
O       5.01455425     1.68630838     5.71584749    -9.00126736     1.09294114    -3.91563087
O       1.34627588     0.91649977     0.12016937    -9.00031502    -1.09339468     3.91587950
O       5.99037572     1.68629788    11.55178885     9.00031502     1.09339468    -3.91587950
O       5.01454318     0.38490965     0.12013147    -9.00126736     1.09294114     3.91563087
O       2.32210838     2.21788795    11.55182675     9.00126736    -1.09294114    -3.91563087
O       5.99036466     0.38489920     5.95614893     9.00031502     1.09339468     3.91587950
O       1.34628680     2.21789845     5.71580964    -9.00031502    -1.09339468    -3.91587950
O       0.26657029     1.58316891     3.15288716     2.05750216    -0.52181021     6.11254447
O       7.07008126     1.01962870     8.51907136    -2.05750216     0.52181021    -6.11254447
O       3.93489462     1.01960436     2.68312920     2.05826680     0.52222081    -6.11255809
O       3.40175694     1.58319330     8.98882916    -2.05826680    -0.52222081     6.11255809
O       0.26655923     0.28177023     2.68309195     2.05750216    -0.52181021    -6.11254447
O       7.07009233     2.32102742     8.98886642    -2.05750216     0.52181021     6.11254447
O       3.40174592     0.28179457     8.51910856    -2.05826680    -0.52222081    -6.11255809
O       3.93490564     2.32100303     3.15284990     2.05826680     0.52222081     6.11255809
