# total energy = -19069.32537257 eV

CRYSTAL
PRIMVEC
        5.93400000     0.00000000     0.00000000
        0.00000000     9.29699974     0.00000000
        0.00000000     0.00000000     4.64899994
PRIMCOORD
22 1
Ti      4.32331199     7.12800798     2.44217402    -0.59327019    -3.93868159    -0.01013786
Ti      4.41155700     2.42222298     2.03458799     0.38033649     0.57136695     0.35193479
Ti      1.37799301     7.29039501     2.54270600     1.24510782    -0.75005149     2.01530314
Ti      1.57058099     2.28435198     2.19062702    -0.06789258     0.66583343     0.82205038
Ti      3.23328702     4.40887598     0.00984799     1.03794650     1.87504864    -1.16905276
Ti      3.03578198     0.12232303     0.03492199    -0.72290269     0.66228737     0.32559691
Ti      0.10187398     4.27636698     4.24536000    -0.74975993     1.10918511    -2.51008282
Ti      5.89774898     9.28897699     0.27329502     0.02473325     0.71023409     0.22125405
O       4.59497100     5.54253499     1.18067202    -2.06567827    -0.67412396    -1.83248478
O       4.23131902     0.67915201     1.38985298     1.48908297     0.27632067    -1.87261586
O       1.36623998     0.56512500     1.34645198     0.59400218     1.89765841     0.24237310
O       4.54124099     8.46200101     3.92883098    -1.28454059     0.48845579    -0.89406623
O       4.23903098     3.90122899     3.12958902     1.44236653     0.22905581     2.53190352
O       1.43570000     8.27000201     4.18082498    -0.11826565     0.66137720    -2.54461146
O       1.82584201     3.96468401     3.30837299    -2.99904897    -0.54233045     0.84843633
O       2.83136499     6.18321799     3.44208100    -0.60997208     1.22168557    -0.88192471
O       3.00744200     1.80140900     3.29136200    -0.13567459    -3.16940698     0.44080243
O       5.70096902     5.97856599     3.39949101     2.02124830     1.71221650    -0.43525553
O       2.90766500     8.03279799     1.52344299    -0.86531460    -2.05493260     0.91110365
O       2.80387498     2.65559602     0.82527102     1.03409242     2.72071923     0.38255458
O       5.70382102     8.04678701     1.51777301     1.17146137    -2.57274705     2.17670086
O       0.14012000     3.22189002     1.08542700    -0.22805771    -1.09917118     0.88021775
