# total energy = -4910.43159260 eV

CRYSTAL
PRIMVEC
        5.54213794     0.00000000     0.00000000
       -0.00000719     2.10218996     0.00000000
       -2.77110220    -1.05119476     6.11652820
PRIMCOORD
6 1
Ti     -0.00023681     1.57670197     1.52913178    -0.04642077    -0.03249310    82.45019992
Ti      2.77126542    -0.52570703     4.58739594     0.04642077     0.03249310   -82.45019992
O       0.00005884     0.52553076     0.99633238     0.04393503     0.03296773   -76.93271231
O       2.77096961     0.52546412     5.12019540    -0.04393503    -0.03296773    76.93271231
O      -0.00002402    -0.52558866     4.05459648    -0.00108089    -0.00009950    -0.61258767
O       2.77105237     1.57658349     2.06193129     0.00108089     0.00009950     0.61258767
