# total energy = -4974.98548022 eV

CRYSTAL
PRIMVEC
        4.77770494     0.00000000     0.00000000
       -0.00000723     2.86662296     0.00000000
       -2.38887938    -1.43336378     5.20312675
PRIMCOORD
6 1
Ti     -0.00020479     2.15006912     1.30078134    -0.00954111    -0.01252976    18.68331423
Ti      2.38902296    -0.71681003     3.90234477     0.00954111     0.01252976   -18.68331423
O       0.00005060     0.71664653     0.84754672     0.00822008     0.01289640   -10.90015244
O       2.38876746     0.71661249     4.35557945    -0.00822008    -0.01289640    10.90015244
O      -0.00001968    -0.71665607     3.44911010    -0.00233713    -0.00001568    -1.63301570
O       2.38883769     2.14991505     1.75401602     0.00233713     0.00001568     1.63301570
