# total energy = -19960.58987710 eV

CRYSTAL
PRIMVEC
        7.60600008     0.00000000     0.00000000
        0.00000000     7.60600008     0.00000000
       -1.89786986    -1.89786986     4.85670466
PRIMCOORD
24 1
Ti      3.92277100     6.74284399     1.17802402    -1.78254443     1.27987557     0.48914536
Ti      3.89520902     2.98306201     1.19052499    -0.75759434    -1.41802897     0.25902460
Ti     -0.01136900     6.53615402     1.19693099     1.10903008     1.48423156     0.45692197
Ti      0.06402600     2.83126000     1.31193100    -0.07306512    -1.96755234    -1.02620633
Ti      5.69131323     2.66351124     3.66114683    -0.71355364    -0.13805286    -0.46813224
Ti      5.69854020    -1.05006975     3.69932681    -0.67731136     0.04053423    -0.54512189
Ti      1.93200423     2.91580925     3.63537680     0.42065680     0.60484839    -0.57202644
Ti      1.86117825    -0.76506780     3.64820379     0.39256852    -1.01546040    -0.92695322
O       3.78820599     4.82035500     0.70462300     0.06252848     0.90665050     0.68759809
O       3.70709799     0.94689099     0.77079403     0.60566317     1.72041781    -0.26160882
O      -0.01790498     4.60495499     0.75068899    -0.03040793     0.22003766     1.19292829
O      -0.15350601     0.81056498     0.69245902     0.16691145     1.16488320     1.40551052
O       5.60904421     4.63870824     4.09969380     0.08495648    -0.72139834    -0.82834727
O       5.59504324     0.80892924     4.03093483     0.42271626     1.45863596     0.94513453
O       1.94941723     4.98301721     3.95622083     0.00416005    -2.96955403    -0.04298629
O       1.86828124     1.11258125     4.11607083     0.09718156    -1.08500645    -0.41257274
O       3.77927623     2.68626120     3.11492483    -0.61690147     0.85002322     1.30733394
O       3.73105623    -0.70332377     3.15334083     0.27446254    -0.85962809    -0.05111304
O      -0.06177277     2.61051223     3.26569384     1.23466039     1.08270428    -0.83727903
O      -0.07348579    -0.90848177     3.19242882     0.14912815    -0.27796001     0.32311914
O       5.65681400     6.63508900     1.66667799     0.70609127    -0.57808396    -0.66531458
O       5.64349000     2.68983400     1.69512402     1.37927600     0.67560234    -0.76697218
O       1.81776698     6.89995201     1.62096199    -0.55089222    -1.18866257    -0.19959507
O       1.95434699     2.74423897     1.55486500    -1.90772017     0.73094356     0.53751194
