# total energy = -19939.53993525 eV

CRYSTAL
PRIMVEC
        5.88786736     0.00000000     0.00000000
        1.83860290     5.99067623     0.00000000
        0.00000000     0.00000000    10.66127009
PRIMCOORD
24 1
Ti      3.22362307     3.55006922     3.95525516     0.21943731    -2.29645903     0.89721429
Ti      4.50284708     2.44060715     6.70601499    -0.21943731     2.29645903    -0.89721429
Ti      5.82695437     2.44060921     1.37533732    -0.80601826    -0.68329894     0.19325858
Ti      1.89951588     3.55006738     9.28593295     0.80601826     0.68329894    -0.19325858
Ti      2.30432176     0.55473120     1.37538006     0.21943731    -2.29645903    -0.89721429
Ti      5.42214842     5.43594534     9.28589021    -0.21943731     2.29645903     0.89721429
Ti      0.98021444     0.55472896     6.70597224     0.80601826     0.68329894     0.19325858
Ti      6.74625574     5.43594758     3.95529791    -0.80601826    -0.68329894    -0.19325858
O       2.51095050     2.10941898     5.44036453     1.66734225     2.01283925    -0.76600519
O       5.21551966     3.88125744     5.22090563    -1.66734225    -2.01283925     0.76600519
O       1.72783165     2.10944315     0.10976377    -0.39765365    -0.28654313     1.10392001
O       5.99863858     3.88123332    10.55150608     0.39765365     0.28654313    -1.10392001
O       4.29621833     0.88591925     0.10972918    -1.66734225    -2.01283925    -0.76600519
O       3.43025184     5.10475717    10.55154067     1.66734225     2.01283925     0.76600519
O       5.07933724     0.88589513     5.44039911     0.39765365     0.28654313     1.10392001
O       2.64713288     5.10478136     5.22087104    -0.39765365    -0.28654313    -1.10392001
O       1.33226235     3.64386892     2.87987503     0.45088347     1.70811970     1.67407057
O       6.39420781     2.34680750     7.78139512    -0.45088347    -1.70811970    -1.67407057
O       3.87810843     2.34675164     2.45079395     0.92685398     1.46898260     0.63896257
O       3.84836173     3.64392478     8.21047602    -0.92685398    -1.46898260    -0.63896257
O       0.41296095     0.64853074     2.45075990     0.45088347     1.70811970    -1.67407057
O       7.31350915     5.34214569     8.21051007    -0.45088347    -1.70811970     1.67407057
O       2.92906039     0.64858659     7.78142912    -0.92685398    -1.46898260     0.63896257
O       4.79740977     5.34208983     2.87984098     0.92685398     1.46898260    -0.63896257
