# total energy = -19515.57890808 eV

CRYSTAL
PRIMVEC
        5.17600016     0.00000000     0.00000000
        0.00000000     5.50899976     0.00000000
        0.00000000     0.00000000     9.26300011
PRIMCOORD
23 1
Ti      1.85870302     3.21192498     3.22857200     0.57146954    -0.58106747     4.20124917
Ti      3.33454101     2.19373302     5.90201399     0.18966778     0.48482668    -3.43442945
Ti      4.50365602     2.19147301     1.42600198    -0.88605261    -1.19405752    -2.32357132
Ti      0.73956198     3.39708400     7.92028200     1.20743883    -0.68139221     1.39893852
Ti      1.84344398     0.58999501     1.37194002    -0.53176604    -0.83674732    -3.05063586
Ti      3.37616800     5.12970699     7.88801499    -0.84744877    -0.13575378     3.36769619
Ti      0.77955498     0.63018401     5.81611799    -0.91542774    -0.35978694    -2.85734694
Ti      4.42001299     4.83391998     3.41612501     0.23411060     1.61732116     3.46344874
O       1.67756999     1.87849700     4.77389101    -0.36439230    -0.10884204    -0.38855734
O       3.34770800     3.51041201     4.50618501     0.72084118     0.93526200    -0.07603989
O       0.76949098     2.22483600     0.19985802     0.19277624     0.01404877    -0.32087765
O       3.42583599     0.86103102     0.06839500     1.34499624     1.05592006     0.50874617
O       1.83028800     4.82402902     8.92542900    -1.89129313    -1.38186613     1.12434229
O       4.32485099     0.82309399     4.84725599    -0.62061568    -0.55166227    -1.38593953
O       0.82159001     4.70975600     4.50814698     0.53071960    -0.51822969    -0.12979396
O       0.04754700     3.24346400     2.75879098    -0.20813345     0.34502829    -0.94592026
O       5.00285701     2.18119798     6.66328399     1.29806254     0.59874253     2.04267846
O       2.79189001     1.80122501     2.35129301    -0.03301658     1.25127153    -0.20509672
O       2.36455398     3.14255598     7.14566901     0.66112266     1.39489366     0.76216833
O       5.15876898     0.69174500     2.16200599     1.40434607    -2.02435060     0.23232702
O       5.08616602     4.87634201     7.07407497    -0.32357680    -0.34973598     0.91938235
O       2.65816602     0.56498498     6.65249200    -2.08468233     0.10162520    -0.87977192
O       2.59235098     4.73662000     2.55642799     0.35085364     0.92455284    -2.02299665
