# total energy = -19961.89318515 eV

CRYSTAL
PRIMVEC
        7.60600008     0.00000000     0.00000000
        0.00000000     7.60600008     0.00000000
       -1.89786986    -1.89786986     4.85670466
PRIMCOORD
24 1
Ti      3.79026502     6.53849198     1.24028601     0.61371561     0.61447846     0.17651941
Ti      3.78439798     2.80371601     1.22029300     0.18740778    -0.54271303     0.26382665
Ti      0.03538502     6.71283101     1.23005500    -0.70485971    -0.45691400    -0.55712612
Ti      0.00603802     2.89333302     1.17153800    -0.09786676     0.54247083    -0.59879755
Ti      5.70762623     2.94456823     3.58379784    -0.92886355    -0.23137057     0.46552385
Ti      5.71753021    -0.90158077     3.65061880    -0.21694025     0.26707884    -0.14143130
Ti      1.83850120     2.81507321     3.62959781     0.83201392    -0.24270272    -0.29133181
Ti      1.88560624    -0.99457779     3.63845481     0.25259298     0.00496069     0.90517134
O       3.79286402     4.69500699     0.82602399    -0.07622192    -0.12148004    -0.20443929
O       3.80897699     0.87411102     0.82754098    -0.08189275    -0.29539518    -0.47935099
O       0.10798798     4.85121201     0.67906798    -0.36763678    -0.49897546     1.29906424
O       0.03590499     1.04279002     0.74361501    -0.04928575    -0.79104852     0.73529798
O       5.73093421     4.82099922     4.08386283     0.09597700     0.35114803    -0.27366087
O       5.75236822     1.06888121     4.06184582    -0.40667514    -0.88718287    -0.34483700
O       1.86532922     4.62564920     4.09447780    -0.36580795     1.39865056    -0.05480154
O       1.88338724     0.88547425     4.08302381    -0.00316683     0.12507316    -0.17574371
O       3.73386023     2.92676623     3.26950079     0.41757970    -0.31563723    -0.40600768
O       3.81845720    -1.03219875     3.24560182    -0.82016421     0.27238406    -0.04993084
O      -0.07746880     2.87035620     3.09086082     1.52533786     0.22195391     0.90644327
O      -0.01370977    -0.83668480     3.20065880     0.99320389    -0.26698191     0.47075708
O       5.73726502     6.60047001     1.73527698    -0.38956187     0.05973703    -1.36887589
O       5.66814903     2.81518101     1.62985799     0.01454602     0.27284583    -0.66933116
O       1.88645202     6.53075499     1.65956098     0.46633761     0.37739977     0.18994160
O       1.92503899     2.77789100     1.62392200    -0.88976940     0.14221985     0.20312031
