# total energy = -19941.15919019 eV

CRYSTAL
PRIMVEC
        6.56673626     0.00000000     0.00000000
        0.00002478     4.19339574     0.00000000
        0.00000000     0.00000000    10.02923839
PRIMCOORD
24 1
Ti      2.38014055     2.48500242     3.72077593     0.12089152     1.23069241    -0.64783005
Ti      4.18662006     1.70839327     6.30846257    -0.12089152    -1.23069241     0.64783005
Ti      5.66339570     1.70839468     1.29380325     0.12218041    -1.23067364     0.64873225
Ti      0.90336497     2.48500117     8.73543530    -0.12218041     1.23067364    -0.64873225
Ti      2.38012837     0.38830460     1.29384348     0.12089152     1.23069241     0.64783005
Ti      4.18663224     3.80509120     8.73539512    -0.12089152    -1.23069241    -0.64783005
Ti      0.90335274     0.38830308     6.30842234    -0.12218041     1.23067364     0.64873225
Ti      5.66340787     3.80509272     3.72081610     0.12218041    -1.23067364    -0.64873225
O       2.07842209     1.47656588     5.11784360     1.81971308    -0.54191778     0.98658998
O       4.48833857     2.71682975     4.91139489    -1.81971308     0.54191778    -0.98658998
O       1.20500165     1.47658282     0.10325664    -1.81954801    -0.54223609     0.98633287
O       5.36175906     2.71681287     9.92598154     1.81954801     0.54223609    -0.98633287
O       4.48832640     0.62013183     0.10322409    -1.81971308     0.54191778     0.98658998
O       2.07843427     3.57326381     9.92601409     1.81971308    -0.54191778    -0.98658998
O       5.36174683     0.62011495     5.11787610     1.81954801     0.54223609     0.98633287
O       1.20501372     3.57328074     4.91136234    -1.81954801    -0.54223609    -0.98633287
O       0.23859970     2.55066101     2.70914750    -0.24690030     0.27232749     1.44864105
O       6.32816096     1.64273463     7.32009094     0.24690030    -0.27232749    -1.44864105
O       3.52197539     1.64269565     2.30550360    -0.24580167    -0.27204441    -1.44898455
O       3.04478522     2.55070004     7.72373468     0.24580167     0.27204441     1.44898455
O       0.23858747     0.45396308     2.30547159    -0.24690030     0.27232749    -1.44864105
O       6.32817314     3.73943255     7.72376669     0.24690030    -0.27232749     1.44864105
O       3.04477305     0.45400212     7.32012290     0.24580167     0.27204441    -1.44898455
O       3.52198756     3.73939352     2.70911548    -0.24580167    -0.27204441     1.44898455
