# total energy = -4989.33448844 eV

CRYSTAL
PRIMVEC
        3.14927150     0.00000000     0.00000000
        0.00000000     4.03726611     0.00000000
        0.00000000    -0.00005928     4.53116293
PRIMCOORD
6 1
Ti      1.57463575     2.01860336     2.26558157     0.00000000     0.00000000     0.00000000
Ti      0.00000000     0.00000000     0.00000000     0.00000000     0.00000000     0.00000000
O       1.57463575     0.78679214     0.88305697     0.00000000    -0.05239473    -0.21495073
O       1.57463575     3.25041458     3.64810616     0.00000000     0.05239473     0.21495073
O       0.00000000     1.23178724     3.14863936     0.00000000     0.05254180    -0.21527778
O       0.00000000     2.80541948     1.38252378     0.00000000    -0.05254180     0.21527778
