# total energy = -19516.66503722 eV

CRYSTAL
PRIMVEC
        5.93400000     0.00000000     0.00000000
        0.00000000     9.29699974     0.00000000
        0.00000000     0.00000000     4.64899994
PRIMCOORD
23 1
Ti      4.35724003     7.02231800     2.16006502     0.00400707     1.31515909     0.08128957
Ti      4.48401100     2.34936199     2.26004798     0.76937977    -0.04640843    -0.01279304
Ti      1.33063900     6.93870403     2.34133802    -0.90735370     0.47714036     0.05372502
Ti      1.55991600     2.30022502     2.46715801    -0.77267284     0.10996767    -0.25324758
Ti      2.99347903     4.59761398     0.17860399    -1.20346236    -1.06315798    -0.30695435
Ti      2.98621199     0.18144901     4.64770801    -0.75258480    -1.29131750     0.74051372
Ti      5.90781801     4.58585201     0.08129798     0.72937159    -0.65469875    -1.26048765
Ti      0.01268602     9.25025498     4.45789801    -0.14498328    -0.68391087     0.20628225
O       4.42906203     5.51971798     0.84633403    -0.21088427     0.96995391     0.88749500
O       4.44965200     0.81678202     0.94879301     1.43289484     1.19837414    -0.39134236
O       1.42501401     5.44549299     0.99025198     0.91289931     1.44987826    -0.11172579
O       1.63507102     0.98180700     0.98621700    -0.66730488    -0.39946628    -1.31071571
O       4.53317500     8.27263800     3.64337103    -0.10284005     1.30002635     0.64496841
O       4.49763599     3.80943299     3.64343500    -0.83156500    -0.26561125     1.04606579
O       1.60499799     8.45445500     3.65247102    -0.90675232    -0.79935036    -0.11316972
O       1.45887998     3.54975100     3.90605398     0.08336574     1.17260962    -0.09566153
O       3.11376202     1.54021198     3.31354802    -0.05789252    -0.16201118    -0.34180592
O       5.77848899     6.11607402     3.27810601     1.57881142    -0.37012432    -0.46090718
O       0.12467099     1.23043400     3.00193401    -1.52972159     0.20649591     1.57188847
O       2.96537802     7.98279101     1.20530898     0.25674223    -2.37269201     2.04530407
O       2.89112498     3.28126302     1.49531298     1.52796887    -0.02277124    -0.45550606
O       5.87350001     7.83811400     1.41787303     0.96600701     0.39228852    -1.19263235
O       0.02283400     3.35928402     1.61245298    -0.17342997    -0.46037368    -0.97058306
