# total energy = -39040.24728997 eV

CRYSTAL
PRIMVEC
        7.60629642    -0.00000847    -0.00005503
       -0.00000847     7.60629642    -0.00005503
       -3.80314186    -3.80314186     9.70738094
PRIMCOORD
46 1
Ti      1.91149784     4.75403148     6.16173999    -0.01245134    -0.00072377     0.18153512
Ti      3.80124121     6.64389774     1.20527280     0.04145031     0.00988872     0.00395487
Ti      1.81478367     0.95089011     6.02037547     0.25650800     0.00011621    -0.00645527
Ti      3.80123293     2.86428083     1.20533686     0.04223990    -0.00991161     0.00350570
Ti     -1.90962617     4.75407035     6.07654846     0.02038603    -0.00016944    -0.10814887
Ti      0.00219655     6.65927005     1.20247472    -0.04537202     0.09724867     0.15517565
Ti     -1.81771751     0.95091463     6.05226255    -0.18576099    -0.00015735    -0.12678834
Ti      0.00222633     2.84888853     1.20251949    -0.04615826    -0.09763768     0.15484397
Ti      3.79590638     0.95066775     8.57591794     0.07036623     0.00011647     0.13260495
Ti      5.70249779     2.85995961     3.63347914    -0.02746659     0.02146049     0.02677805
Ti      3.81307355    -2.85248613     8.50347244     0.14447574     0.00003960     0.04019279
Ti      5.70247102    -0.95875529     3.63350982    -0.02766585    -0.02157054     0.02646746
Ti      0.00927311     0.95060429     8.46365020    -0.00008845    -0.00001054     0.03575352
Ti      1.90291598     2.76312562     3.61214436     0.01674252     0.24803827    -0.06971215
Ti     -0.00893555    -2.85254892     8.49922651    -0.13408719    -0.00038155     0.11916990
Ti      1.90290399    -0.86161002     3.61216511     0.01664379    -0.24756879    -0.06921181
O       1.94741792     2.90882279     5.61131370     0.07757972    -0.08393112    -0.01012167
O       3.80610918     4.75392826     0.78139903     0.04324726    -0.00010027    -0.08666986
O       1.94741498    -1.00713805     5.61142372     0.07770288     0.08288674    -0.01035512
O       3.79685902     0.95077903     0.79276093    -0.05284339     0.00006299    -0.04557076
O      -1.95307231     2.83075332     5.66713352    -0.13717252     0.06281644    -0.00321979
O      -0.00333845     4.75393808     0.82417564    -0.05013833    -0.00021726    -0.08995779
O      -1.95306219    -0.92914869     5.66716396    -0.13719232    -0.06302985    -0.00322956
O       0.00580436     0.95078090     0.80114110     0.04528794     0.00020440     0.09765259
O       3.80224932     2.86111336     8.91360050    -0.01362145     0.00098808     0.13170841
O       5.70952303     4.75392569     4.07044511     0.03222390    -0.00008510     0.12666982
O       3.80226234    -0.95958134     8.91364864    -0.01365796    -0.00071580     0.13185162
O       5.67780893     0.95077061     4.04765274    -0.00320437     0.00000951    -0.10584927
O       0.00116095     2.83777297     8.90076618     0.01488901     0.01511424    -0.06651344
O       0.00115118    -0.93620263     8.90078408     0.01493040    -0.01501036    -0.06648695
O       1.93045194     0.95071687     4.07565060     0.03754995     0.00204660    -0.28408412
O       1.98587800     0.95086841     8.00833736    -0.07637311    -0.00007199    -0.05191033
O       3.78221008     2.90733434     3.23853701     0.05356510     0.18302893    -0.09688563
O       1.90020999    -2.85232341     8.10535115     0.01117145    -0.00000154    -0.02797618
O       3.78220835    -1.00567548     3.23852508     0.05383866    -0.18322691    -0.09671337
O      -1.98629268     0.95085997     8.01340336     0.07914784     0.00000463    -0.02278178
O       0.01999966     2.89617194     3.25100201    -0.05458557     0.06748943     0.02467283
O      -1.90129912    -2.85231290     8.07063431    -0.01250045     0.00001491     0.07805615
O       0.02001357    -0.99452381     3.25098056    -0.05495169    -0.06782830     0.02479419
O       3.80657315     4.75386515     6.47977980     0.03380925     0.00025814     0.18461967
O       5.70559962     6.65952023     1.64802757    -0.01378112     0.01397935     0.04658635
O       5.70560589     2.84822085     1.64809116    -0.01379500    -0.01403694     0.04630430
O      -0.00394321     4.75385429     6.47535328    -0.04010074     0.00013113     0.06837311
O       1.89970386     6.62847641     1.62931008     0.01208985    -0.00016455    -0.08414812
O       0.00997759     0.95076355     6.49575994    -0.05502600    -0.00000540    -0.22357807
O       1.89970259     2.87929729     1.62941503     0.01214924     0.00061269    -0.08490274
