# total energy = -19073.59671371 eV

CRYSTAL
PRIMVEC
        5.17600016     0.00000000     0.00000000
        0.00000000     5.50899976     0.00000000
        0.00000000     0.00000000     9.26300011
PRIMCOORD
22 1
Ti      1.90507202     3.31611099     3.24867100    -0.77321123     0.82903247     0.62921963
Ti      3.49810600     2.26234101     5.93009499    -0.45192246     1.26518454    -1.25560898
Ti      4.40925402     2.26991100     1.38351598     0.13688198     1.69376909    -2.27440384
Ti      0.76037902     3.11727798     8.04771000    -0.16447353     0.94063638     0.82734094
Ti      1.80184801     0.46722800     1.35248799    -0.10988925    -0.65770232    -3.20848108
Ti      3.29771800     4.94565200     8.01195502     0.24781150    -0.38114484     2.46740094
Ti      1.09773502     0.29246298     6.00698799    -0.81644768    -0.52652741    -1.04487486
Ti      4.28272801     5.18940999     3.49977899     0.42274017    -1.23402482     1.06145411
O       3.47796398     3.51166701     4.24561802     0.68441532    -1.05626922     2.30269113
O       0.76549098     1.92833201     0.24769501     0.38144284    -0.50487974    -1.01481917
O       4.28999599     3.60120798     9.07225198    -0.31282649    -0.06314117    -0.67166675
O       3.35694199     0.75256001     0.19127302    -0.12429129     0.11527520    -0.01508852
O       1.58076601     4.59284900     8.89055198     0.09382807     0.24534838     0.59036407
O       3.46891499     0.78874499     4.72079702     1.27051110    -0.36735858    -1.30690945
O       0.98448400     5.00016800     4.31878599    -1.01039712     0.35363095     1.59700070
O       0.24144702     3.66337001     2.44004598    -1.06599468    -1.40048710    -0.77554990
O       0.07086202     1.92038599     6.44070299     1.06038736    -0.42910956     0.40303317
O       2.55595401     1.93008602     2.16098097     0.79064511     0.87381442     1.09274136
O       2.50651901     3.68667201     6.79001702    -1.30060150    -0.51736014    -0.20991702
O       5.12533699     0.77782399     2.11989301     0.57079103    -0.95462602     1.62097701
O       2.55390699     0.89657300     6.94866700     0.40699781     0.72265715     0.69426522
O       2.75519802     4.68664202     2.38066902     0.06360295     1.05328314    -1.50916921
