# total energy = -18961.17365441 eV

CRYSTAL
PRIMVEC
        7.60600008     0.00000000     0.00000000
        0.00000000     7.60600008     0.00000000
       -1.89786986    -1.89786986     4.85670466
PRIMCOORD
22 1
Ti      6.09184500     5.20133002     0.76620500   -10.19278848     3.82865762     0.44656402
Ti      5.92876120     1.93087121     2.50932179    -6.98092074    -0.96103707   -12.79292062
Ti     -1.33254076     4.27763520     3.86762682     0.22217862    22.01530113    -0.83291766
Ti      0.38056602     3.64614503     1.30903598     8.34612432   -27.28257326    21.27716336
Ti     -1.44256078     2.81382123     4.78148481     1.97149718    49.16326089    24.60579368
Ti      5.19841923     2.01300121     4.23982681   -64.73204450   -46.29469751   -29.93846750
Ti     -0.32714076     2.05653022     4.27816682    56.00216027   -30.88922041   -17.12768723
Ti     -0.98058778     0.14504225     3.62649784     4.26783588   -13.22586267     2.01731349
O       3.65265698     5.98441303     0.82737398     1.15226653    -0.52249309    -0.02100361
O       5.65278098     6.47372201     1.53140499    -3.82062986     5.22272750     5.43224446
O       0.31626300     5.17819699     1.35931401    -6.88445703    22.52214905    20.74723386
O      -0.30728577     5.54938921     3.55461080    -0.05840083     3.29056050     0.60025794
O       5.93433100     3.69729398     2.40071700    -8.26737397     5.97708045     5.96628901
O       6.76267099     0.64593301     1.82313300     1.71899805    -4.35092137     1.41190126
O       1.77137798     5.39277598     0.11445898    23.85203029    20.58917524     4.28640311
O       1.99977803     3.97654298     1.36720700     6.86503285    -3.10622493     2.30261605
O       3.95960825     1.77864120     2.97169682    -0.47452786    -0.96976725    -3.04243609
O       0.61796425     2.73662221     2.92224679    -0.40723924     0.75886421    -2.65271019
O       4.20046322     4.13115624     4.11105380     2.22083823     0.59223249    -2.39747488
O       6.27306001     3.45365601     1.31108701    -7.21184626    -4.20984592   -12.84469931
O       0.82704821     0.62560922     4.21602384    -2.38622116    -2.74064195    -0.68078466
O       7.04128302     1.90534698     0.45461099     4.79748847     0.59327688    -6.76267848
