# total energy = -19958.58798245 eV

CRYSTAL
PRIMVEC
        7.60600008     0.00000000     0.00000000
        0.00000000     7.60600008     0.00000000
       -1.89786986    -1.89786986     4.85670466
PRIMCOORD
24 1
Ti      3.91564600     6.65535601     1.07177502    -0.94895956    -1.85173078     1.16452196
Ti      3.88135902     2.59413002     1.19052800     0.19731270     2.60785779     1.64603551
Ti     -0.10714702     6.73744601     1.16216802     0.59858235     2.06795292     0.64541655
Ti     -0.04952501     3.01709001     1.25105302    -0.44695688    -2.12744647     0.35882586
Ti      5.61686122     2.91764623     3.73737582    -1.15103960     1.34616532    -1.25527371
Ti      5.74526523    -0.75997076     3.70506283    -0.36589074    -1.24738839     1.03076155
Ti      1.68253621     2.62410325     3.65220881     1.46645160     1.89645822     0.27878713
Ti      2.04629324    -0.99085080     3.58164282     0.71998603    -0.58142229    -2.16867773
O       3.93709499     4.64436800     0.64550602    -0.53376944     0.91260441     1.45972534
O       4.21535797     0.90204099     0.64285299    -1.02757056     0.20038954     0.99593492
O      -0.13257001     4.90834299     0.84381599     0.45882176    -1.62168484     0.42954794
O       7.31497699     1.04726898     0.73183600     1.04408939    -0.28933200     1.23886852
O       5.40320622     4.89631220     4.12207683     1.16419440    -1.26925177    -0.36189036
O       5.49998422     1.08524221     4.22150379     0.83299145     0.15004784    -0.79390733
O       2.33427123     4.79915923     4.09643682    -1.67884743    -0.99238217    -1.36098748
O       2.02214624     0.93802425     4.09914880    -0.62821484    -2.35630328    -0.60650495
O       3.90580521     2.89234420     3.09644882    -1.35146848    -0.39855251     0.11882306
O       3.85475723    -0.86519676     3.21912682    -1.78265601     0.55755087    -0.58039179
O      -0.14394976     2.77289821     3.23000480     1.07026837     0.72116359     1.16155799
O      -0.04725876    -0.92111079     3.21063681     1.81071884     0.15061631     0.62250570
O       5.66290498     6.73599998     1.85384697     0.52845471    -0.38843084    -2.73774509
O       5.74926798     2.76644399     1.64369598    -0.48389568     0.71740798    -0.04256334
O       1.97189901     6.62684400     1.42518102    -0.07923963     0.41490318     0.88344037
O       1.81581199     2.33825699     1.81095499     0.58663751     1.38080735    -2.12681012
