# total energy = -18982.25048018 eV

CRYSTAL
PRIMVEC
        7.60600008     0.00000000     0.00000000
        0.00000000     7.60600008     0.00000000
       -1.89786986    -1.89786986     4.85670466
PRIMCOORD
22 1
Ti      5.93442599     5.30033898     0.75759799    -6.60155278    12.62145137    -2.79255203
Ti      5.65447800     2.06797903     2.24458802    -4.27064147    -2.87003328    -8.74569189
Ti     -1.27722877     4.33171823     3.89555679    -0.01702842    15.15276482     4.96418755
Ti      0.51534397     3.74295298     1.42423802     5.16160618    -7.00278695    15.90991436
Ti     -1.46747276     2.68748424     4.67353482   -21.80029486    73.24606397    27.74164390
Ti      5.25019822     1.65508022     4.33785880   -48.80848400   -44.73005082   -11.35134573
Ti     -0.35156679     2.00196824     4.23066781    67.40904031   -18.92479336   -24.04368784
Ti     -0.92910576     0.04379921     3.68054081    -0.39599117   -17.24470563    13.08534257
O       3.85012698     5.72722399     1.21824202     3.59324913     0.26953116     0.47169270
O       5.45843598     6.66655002     1.88329701    -3.80519372    -2.77947951    -0.99097166
O       0.26926698     5.53579301     1.55212598    -3.16571796     3.00643446     2.11585928
O      -0.45599278     6.01862920     3.56747679     0.64252869    -5.10435823     0.96582960
O       6.07770200     3.76549497     2.34978200    -0.49802004     5.54637037    11.79483188
O       6.44957898     0.59038501     2.31277198     1.99548610     3.94318565   -15.01243190
O       1.83095403     5.87857699     0.54118000     1.94637749     1.62548519    -2.68694598
O       2.33362098     3.84078102     1.07912402     1.98094830     0.68059903     2.17992194
O       4.20486524     1.43322620     2.80066779    -2.72289747     0.12950806    -1.32746105
O       1.19945199     2.53029298     2.31601001    -0.67719180    -2.37851170     3.74091895
O       4.13802322     4.33983925     3.99421279     2.21879163    -1.18856461     1.76598369
O       6.11151399     3.63772201     1.21104500    -2.47167232    -6.98160285   -17.08927365
O       0.54457022     0.72328121     4.25077179     9.92695123    -9.63956735     0.33380568
O       7.25142402     1.59861701     0.28789603     0.35970724     2.62305970    -1.02957036
