# total energy = -4979.95149307 eV

CRYSTAL
PRIMVEC
        3.93621854     0.00000000     0.00000000
        0.00000000     2.33938320     0.00000000
        0.00000000    -0.00009339     5.33344699
PRIMCOORD
6 1
Ti      1.96810927     1.16964476     2.66672325     0.00000000     0.00000000     0.00000000
Ti      0.00000000     0.00000000     0.00000000     0.00000000     0.00000000     0.00000000
O       1.96810927     0.45589308     1.03941018     0.00000000    -1.56388308    -1.36001689
O       1.96810927     1.88339645     4.29403632     0.00000000     1.56388308     1.36001689
O       0.00000000     0.71371474     3.70613461     0.00000000     1.56377432    -1.35845700
O       0.00000000     1.62557478     1.62731190     0.00000000    -1.56377432     1.35845700
