# total energy = -19961.45065969 eV

CRYSTAL
PRIMVEC
        7.60600008     0.00000000     0.00000000
        0.00000000     7.60600008     0.00000000
       -1.89786986    -1.89786986     4.85670466
PRIMCOORD
24 1
Ti      3.75825101     6.60395798     1.28924099     0.12911416     0.76212540    -1.18433334
Ti      3.78745398     2.89951699     1.24064500     0.05004603    -0.68581245    -0.82151147
Ti     -0.01829498     6.60788601     1.16856900    -0.02178831     0.86872697     1.14092488
Ti      0.03923500     2.90529402     1.14988798    -0.48733273    -0.69041190     0.47195830
Ti      5.75282622     2.87420321     3.59285783     0.32817624     0.27976955     0.12142116
Ti      5.69407622    -0.97917477     3.66047583     1.72521292     0.04415537    -0.11642911
Ti      1.87669923     2.88206224     3.58791881    -0.33476984     0.05083356     1.03418292
Ti      1.91041724    -0.95597775     3.61936183    -1.60008268    -0.17088175     1.41145697
O       3.67845500     4.75317801     0.81129402     0.17281599    -0.38991720    -0.12108178
O       3.61410398     0.91163101     0.82744801     0.78795265     0.60801342     0.49288426
O       0.07118201     4.78164701     0.79728099    -0.23998197    -0.44767885    -0.71801733
O       0.14301698     0.98860201     0.70690598    -0.85039860    -0.68154005     1.02777496
O       5.97667820     4.77468822     4.07455581    -1.04417835    -1.24411332    -0.16657258
O       5.86661023     0.93994522     4.12580182    -0.80022505     1.06635926    -1.48584312
O       1.69755723     4.75155121     4.14631781     0.72656934    -0.68286494    -0.30757167
O       1.83989125     0.93909922     4.02898079     0.49133311     0.19672777     0.49074227
O       3.79898221     2.95233624     3.24430984     0.22232749    -0.29791615    -0.10013628
O       3.81353924    -1.12649380     3.28220983    -0.08532106     0.35259788    -0.13379357
O      -0.00900379     2.77577021     3.18185983    -0.47010093     0.01941132     0.02415295
O      -0.04446777    -1.06283780     3.20354281     0.27234626     0.81143146    -0.34304340
O       5.73812197     6.56305501     1.58248298    -1.18922950     0.52812690    -0.10724641
O       5.67982098     3.02356799     1.57965098     0.07877554    -0.65251306     0.36243826
O       1.83832599     6.57475401     1.75376903     1.10286174     0.19982056    -0.77146802
O       1.84733503     2.89863797     1.67488600     1.03587754     0.15555000    -0.20088911
