# total energy = -19070.11536266 eV

CRYSTAL
PRIMVEC
        5.93400000     0.00000000     0.00000000
        0.00000000     9.29699974     0.00000000
        0.00000000     0.00000000     4.64899994
PRIMCOORD
22 1
Ti      4.64415300     6.57658100     2.47041298     0.58124308     0.94344069     1.19142522
Ti      4.26682798     2.32446700     2.31750499     1.03493420     0.24151718     0.80531069
Ti      1.71368300     7.45849103     2.01177998    -2.27092925    -0.38928136     1.15272033
Ti      1.44426198     2.38503399     2.28536001    -1.04268891    -0.36176566    -0.41692073
Ti      2.80786000     4.68578999     0.08814601     1.88648157     0.32765945    -1.58519984
Ti      2.86614702     0.08905699     4.61957298     1.48410197     0.45960954    -0.12256865
Ti      5.86694801     4.40931303     4.58168902    -0.66702591     0.81372951    -1.67168099
Ti      5.89898101     0.02749700     0.05412298    -0.96964101    -1.10516082     0.21684692
O       4.59269702     5.26696202     1.18630898    -1.94919877     0.81881464     1.28761331
O       4.60607102     0.89038099     1.00419998    -1.03272691     1.15064622     0.22042204
O       1.40052300     0.42778202     1.38223400     1.35905247     1.91647555    -2.13159006
O       4.59651900     8.53874098     3.73626698    -0.48939656     0.42638214    -1.29567887
O       4.29806801     3.78586100     3.73434702    -0.32783377    -0.94767221    -0.99458252
O       1.79411302     8.50141398     3.44938502    -1.40211383     1.04430973     2.38443090
O       1.49872602     3.78374101     3.50687198     0.56652094     0.97079106     1.68500959
O       2.98675599     6.31951600     3.32317100    -0.02330963    -1.34757943    -0.67552444
O       2.80141901     1.48833202     3.20140600     1.97751511    -0.63781637     1.67205843
O       5.89443099     6.17144803     4.12804198    -0.01940489     0.31021580    -4.13397083
O       3.03436501     7.78740601     0.98679799     2.14718947    -1.07109138     0.13509275
O       2.94017998     3.10014401     1.35036303    -0.30032759     1.37128141    -1.80520408
O       5.90888001     7.85007002     1.22463998    -0.00793854    -2.35993908     2.22506307
O       0.10561399     3.29832201     1.31725002    -0.53450375    -2.57456636     1.85692827
