# total energy = -39035.69429128 eV

CRYSTAL
PRIMVEC
        5.93200024     0.00000000     0.00000000
        0.00000000     9.29399984     0.00000000
        0.00000000     0.00000000     9.29399984
PRIMCOORD
46 1
Ti      4.43816700     6.96058201     6.99172801    -0.23230517     0.65418299    -0.00337586
Ti      4.51573999     6.97659799     2.44103301    -1.25186571     0.10548315    -0.81903062
Ti      4.50894901     2.24401000     7.04043798    -0.80649160     0.35862532    -0.50673994
Ti      4.20062801     2.62463100     2.14112698     0.61622938    -1.35260954     0.69012702
Ti      1.41837500     7.01998798     7.06051602     0.29862911    -0.12082801    -0.44944083
Ti      1.47192298     7.03082802     2.30549499     1.57876000    -0.20880785    -0.43504804
Ti      1.48451798     2.31558699     6.95027300     0.76447719     0.66680557    -0.14817196
Ti      1.20999199     2.10002399     2.55247498     1.23165066     0.42117179    -0.91685650
Ti      2.94545503     4.69128301     4.63289899     0.19765260    -1.18178589     1.03579886
Ti      3.03667502     4.76835799     9.16638001    -0.33071264     0.64880398     0.11385723
Ti      2.96556598     9.27538402     4.70395701     0.43126003    -0.25184762    -0.45059911
Ti      2.96738699     9.29373001     0.06070801     0.77414428     0.61460136    -0.56270465
Ti      5.92435702     4.66573999     4.60390103    -0.08543908    -1.06437771     0.95538218
Ti      0.08201200     4.55615902     9.21161202     0.20001390     0.27089976     0.59052168
Ti      5.92566102     9.20923998     4.77023398    -0.29094923    -0.65559093     0.23671153
Ti      0.01831398     9.26854599     0.09986601    -0.85108611     0.96860871    -0.80716060
O       4.45009899     5.58836698     5.51488199    -0.03464126    -0.68966114    -0.56853077
O       4.46854802     5.54314900     0.83175302     0.14559263    -0.37400720     0.79448223
O       4.57021900     0.78275602     5.69791900    -0.66900232     0.30292337    -1.11769238
O       4.50201303     1.08969502     0.65385802    -0.41351042     0.13315285     1.64031763
O       1.48392398     5.51600898     5.56829598     0.29124336     0.07700688    -0.41231074
O       1.55318100     5.52014000     0.82339901    -0.38575458    -0.37389562     0.50306069
O       1.47821199     0.83917801     5.47202398     0.49506713     1.06952326     0.17207320
O       1.55818702     1.09953899     0.83027598    -0.83141999    -0.71052745     0.87978298
O       4.47451200     8.38450099     8.35246799     0.14901939     0.16594472     0.42687527
O       4.54285202     8.37098300     3.80927503    -0.43548153    -0.05591663    -1.42568674
O       4.47999502     3.78266302     8.32166601     0.10403124    -0.88523809     0.44293748
O       4.52996798     3.58865701     3.79469201    -0.55965583     0.87849023    -1.05189166
O       1.45093300     8.45625801     8.43207900     0.33267002    -1.11389975    -1.08459430
O       1.58473198     8.24360797     3.77101800    -0.48891859     1.12211854    -0.27523130
O       1.55644100     3.94138503     8.06825499    -0.53884660    -0.96167187     1.62576390
O       1.46540002     3.52059201     3.74853299     0.10268347     1.39107737     0.38106514
O       2.99231002     6.15823500     7.98468800    -0.47399924     0.63420680    -1.17144003
O       3.00422402     6.11821301     3.16270499    -0.00410194    -1.06872031     0.36635303
O       2.96228699     1.41305402     7.85669500    -0.09195708     0.31288203    -0.53550751
O       3.04043700     1.42139401     3.09090601    -0.23972461     0.16955223    -0.07522151
O       5.85334498     6.02826298     7.83355397     1.16463920     0.17704083     0.38284049
O       0.04165302     6.10073402     3.16824299    -0.11891742    -1.21931373     0.86507292
O       0.06522798     1.32999298     7.85602998     0.42116562     0.97415021    -0.41084315
O       3.03609298     7.86411502     5.98540597    -0.94029880     0.08767079     0.54284570
O       2.93778000     7.99560900     1.38755900     0.39406516    -0.61467258     0.65029702
O       3.06262598     3.21829802     6.00062897    -0.25518183    -0.35024532     0.00205251
O       5.91018999     7.79278499     5.98393798     0.89990032    -0.07445480     0.78209233
O       0.00853399     7.78939202     1.37445700    -0.16529654     1.11696168    -0.18855552
O       0.02351299     3.16846498     6.04608900    -0.18899981     0.16587401    -0.12823048
O       0.01096799     3.22778702     1.51526498     0.09166269    -0.15968588    -0.53544657
