# total energy = -19518.98587311 eV

CRYSTAL
PRIMVEC
        7.60600008     0.00000000     0.00000000
        0.00000000     7.60600008     0.00000000
       -1.89786986    -1.89786986     4.85670466
PRIMCOORD
23 1
Ti      3.79749401     6.70154102     1.17203500     0.73445415    -0.47875013    -0.19697074
Ti      3.73626201     2.81820499     1.26301502     0.42891879     0.67431499     0.02308183
Ti      0.02663899     6.66667199     1.23446802    -0.51420308     0.05629252    -0.41127639
Ti     -0.08101799     2.87273401     1.16350101     0.25382120    -0.11500266    -0.06752594
Ti      5.54572921     2.84982423     3.61863781     0.72774202    -0.25078807     1.00741336
Ti      5.78193124    -0.98703675     3.65337179    -0.39504501     0.20452670    -0.58118292
Ti      1.92102825     2.81950920     3.61051383     0.13670998     0.05654526     2.04408485
Ti      1.99184322    -0.94065077     3.57823682     0.22223698     0.06498440     0.65986770
O       3.78081900     4.70997101     0.89184602    -0.45250070     0.29594000     0.10591921
O       3.82422698     0.98060698     0.68082299     0.18682362    -0.53945467     0.33184110
O       0.01636100     4.80269101     0.85773298     0.28196785    -0.28424790     0.13805389
O       0.03669701     1.02854901     0.68207899    -0.13159425    -1.25845802     0.75511580
O       5.66804922     4.70452323     4.03675981     0.42772760     0.80402051    -0.07470472
O       5.62999323     0.99051223     4.08898283     0.78496014    -0.02490474    -0.75775838
O       1.99055923     4.71432021     4.02290182    -0.40262539     0.13109777    -0.06047443
O       1.91797622     0.95958521     4.16695281    -0.64814835    -0.05039570    -0.86133942
O       3.75829023     2.70450025     3.43210283    -0.43680436     0.53978840    -1.50016417
O       3.86736324    -0.97772879     3.17707882    -0.59247932     0.04934720    -0.03039045
O       0.09541521    -1.04894779     3.21511280    -0.52748001     0.26204256    -0.36222820
O       5.72990200     6.79411502     1.61823800     0.72680897    -0.11547780     0.02249922
O       5.69446898     2.67851400     1.71047100     0.37239383     0.54787041    -0.18311661
O       1.96242499     6.97945300     1.50639501    -0.54653317    -0.94792392     0.97276156
O       1.82261499     2.68037802     1.76487402    -0.63715148     0.37863288    -0.97350615
