# total energy = -19956.27818187 eV

CRYSTAL
PRIMVEC
        5.24211471     0.00000000     0.00000000
        1.37336725     5.40752086     0.00000000
        0.00000000     0.00000000     9.45755017
PRIMCOORD
24 1
Ti      2.71387067     3.20449201     3.50868384     1.19187979    -1.88847546     0.93967042
Ti      3.90161144     2.20302920     5.94886687    -1.19187979     1.88847546    -0.93967042
Ti      5.08049701     2.20303107     1.22005376    -2.25170434    -0.42120136     0.89768506
Ti      1.53498514     3.20449036     8.23749705     2.25170434     0.42120136    -0.89768506
Ti      2.02718716     0.50073162     1.22009167     1.19188288    -1.88742105    -0.93717362
Ti      4.58829499     4.90678981     8.23745913    -1.19188288     1.88742105     0.93717362
Ti      0.84830152     0.50072955     5.94882895     2.25205761     0.42015004     0.89449046
Ti      5.76718062     4.90679183     3.50872176    -2.25205761    -0.42015004    -0.89449046
O       2.14274837     1.90408014     4.82611568     0.44539674     0.96624407    -0.73504113
O       4.47273370     3.50344109     4.63143502    -0.44539674    -0.96624407     0.73504113
O       1.44551714     1.90410196     0.09737081     0.29732351    -0.52320323     0.46982763
O       5.16996505     3.50341935     9.36017963    -0.29732351     0.52320323    -0.46982763
O       3.78605016     0.79968054     0.09734012    -0.44506918    -0.96590879    -0.73470046
O       2.82943196     4.60784068     9.36021032     0.44506918     0.96590879     0.73470046
O       4.48328151     0.79965875     4.82614637    -0.29714096     0.52254400     0.46961217
O       2.13220057     4.60786253     4.63140433     0.29714096    -0.52254400    -0.46961217
O       1.02581797     3.28916085     2.55472040    -0.04471536     0.19859851     0.02029578
O       5.58966410     2.11836038     6.90283031     0.04471536    -0.19859851    -0.02029578
O       3.34952063     2.11830995     2.17408506     1.07808478    -0.10225718    -0.66404112
O       3.26596150     3.28921132     7.28346549    -1.07808478     0.10225718     0.66404112
O       0.33913443     0.58540030     2.17405485    -0.04413197     0.19899009    -0.02067013
O       6.27634769     4.82212097     7.28349569     0.04413197    -0.19899009     0.02067013
O       2.57927795     0.58545072     6.90286046    -1.07795134     0.10237442    -0.66407968
O       4.03620416     4.82207050     2.55469019     1.07795134    -0.10237442     0.66407968
