# total energy = -19073.20062545 eV

CRYSTAL
PRIMVEC
        5.17600016     0.00000000     0.00000000
        0.00000000     5.50899976     0.00000000
        0.00000000     0.00000000     9.26300011
PRIMCOORD
22 1
Ti      1.85552701     3.35106198     3.11557302    -0.37647161     0.94850139    -0.26458641
Ti      3.47990002     2.39173501     6.07456202    -0.81978318     0.51470188    -0.80634016
Ti      4.34953399     2.24571400     1.23525401     0.62105277    -0.80026695    -0.87428416
Ti      0.88291901     3.00359499     7.85253599     0.00624701     0.87681669     1.64580205
Ti      1.73945102     0.49411100     1.25051400    -0.37748179     0.24429500    -1.22470816
Ti      3.30379200     5.02138801     8.05411802     0.40689240     0.40763673     2.54730855
Ti      1.37536898     0.30430401     5.95366799    -1.20127101    -0.74130948    -0.44706230
Ti      4.31976301     4.97615701     3.63619602     0.50977616    -0.11053228    -0.91601241
O       3.23121101     3.48252802     4.44121501     0.18417564    -0.44651697     0.61921829
O       0.99848799     2.03739602     0.27585899    -1.13793597    -0.42941990    -0.19399212
O       4.34343199     3.59749601     8.90967100     0.28016679    -0.55781929    -0.45523532
O       3.41745399     0.78096000     0.32854102     1.03498074     0.67289934    -1.60329322
O       1.83352599     4.56087399     9.06024701    -1.57477813     0.04219696    -0.20736263
O       2.95016100     0.73401600     5.15598900     1.93249482     0.17425530    -1.93004070
O       0.96540198     4.96744601     4.09850400    -0.66598101    -0.04202238     2.30703167
O       5.11364599     3.38011201     2.62003801     0.37653023    -0.39776446    -0.22986622
O       0.11513299     2.07193298     6.27106702     0.53059336    -0.91353155     0.27801117
O       2.66052298     1.78058900     2.36251898    -0.03276332     1.19467098     0.72490558
O       2.29898701     3.99077197     6.79010597    -0.71017675    -0.38571935    -1.27190592
O       5.14858698     0.65335901     2.10601697     0.30745006     0.02311114     0.60576087
O       2.34734302     1.30130099     7.32502099     0.29464133     0.77086072     0.30107861
O       2.72770600     4.61470000     2.14699000     0.41164174    -1.04504404     1.39557269
