# total energy = -19517.37352905 eV

CRYSTAL
PRIMVEC
        5.93400000     0.00000000     0.00000000
        0.00000000     9.29699974     0.00000000
        0.00000000     0.00000000     4.64899994
PRIMCOORD
23 1
Ti      4.43523901     6.96914997     2.30054798     0.17856344     0.39131382    -0.93118809
Ti      4.50829103     2.39164600     2.35069398    -0.68008712    -0.61739049     0.20238369
Ti      1.45112499     7.00559198     2.33449798    -0.13063934     0.58803079    -0.66823870
Ti      1.41439702     2.27952901     2.25377898     0.89627430    -0.13625901     0.83652929
Ti      2.90612499     4.50915702     0.00361100     0.63878336    -0.40180187     1.15781086
Ti      2.94814198     0.07420700     0.02986698     0.74466529     0.55878500    -0.73887850
Ti      0.00479302     4.70952301     4.59074801    -0.71612706    -0.44986377     0.95955482
Ti      5.92865600     9.25985002     4.64478002    -0.75872948     0.47038196    -0.36066651
O       4.37363801     5.55705800     0.96520697     0.19833806     0.23829276    -0.11960596
O       4.55748202     1.01875802     0.87356300    -0.44059134    -1.32641127     0.47971481
O       1.50993198     5.49385402     0.93413803     0.43564248     0.59236619    -0.02166258
O       1.44615602     0.98386598     0.79165001     0.46635278    -0.01538626     1.68625246
O       4.55964397     8.34322898     3.69128099    -0.65082641    -0.18229308     0.34208849
O       4.44304098     3.62711100     3.86416902     0.17010013     1.25162531    -0.67308575
O       1.55765001     8.54212702     3.63034501    -0.48363060    -1.39755372     0.25139150
O       1.48713698     3.69044902     3.79420803     0.02986852     0.12482376    -0.62681076
O       2.95836700     1.43926898     3.35433298     0.20138816     0.17640808    -1.18741250
O       0.16206900     5.92377498     3.23894699    -0.78184988     1.05254806    -0.34635961
O       5.84047401     1.50235501     3.39433598     1.27173392    -0.17904861    -1.86001154
O       2.90605000     7.91707000     1.45942201     1.04438069    -0.72755484     0.26193303
O       3.06461902     3.17325599     1.36296401    -1.35430338     0.04206378     0.84296888
O       0.02523101     7.73524898     1.38088698    -0.03278518     0.76918282    -0.19382860
O       0.08317597     3.33197900     1.46209102    -0.24652183    -0.82225915     0.70712125
