# total energy = -39036.73737675 eV

CRYSTAL
PRIMVEC
        7.60600008     0.00000000     0.00000000
        0.00000000     7.60600008     0.00000000
       -3.79573973    -3.79573973     9.71340985
PRIMCOORD
46 1
Ti      1.92261546     4.73608844     6.17794860     0.17256505     0.31698680     0.08022308
Ti      3.75254098     6.84037601     1.37304298    -0.24891502    -1.53297146     0.40151982
Ti      2.07293244     0.88896047     5.95559864    -1.24288664    -1.10489420     1.75170043
Ti      3.91346500     2.78470400     1.16472998    -1.66445593    -0.89274314     0.59498923
Ti     -1.86356553     4.84590844     6.10201463    -0.35890659     1.00735654     0.70713694
Ti     -0.05192700     6.66242498     1.17763402     0.60213510     1.45256764     0.55174172
Ti     -1.88408157     1.01581743     5.97632762     0.39003649    -1.72403252     0.04427416
Ti     -0.11476902     2.92655303     1.09299799     1.71788373    -1.16522130     1.43473163
Ti      3.83024045     0.99207447     8.51116063    -0.98347972     0.42970863    -0.90870198
Ti      5.69810501     2.91948698     3.79483500     0.50762311    -0.78843113    -2.01172982
Ti      3.75290744    -2.73531154     8.53413062     0.37335697    -1.10566836     0.01788640
Ti      5.70783298    -0.95591198     3.62312100     0.23834495     0.75479261     1.76976372
Ti     -0.00193356     0.86427245     8.26144463     0.88613283     0.71576299    -0.62647291
Ti      1.87586202     2.77740399     3.42130798    -0.48958785    -0.38668583    -0.31690555
Ti     -0.03928755    -3.00262453     8.55729160     0.05244127     0.23051362     0.75881047
Ti      1.81930202    -1.05429000     3.76000301    -0.08912938    -0.20192115     0.41898841
O       1.87594044    -1.10115155     5.74301861    -0.21231304     1.09098555    -1.41598057
O       3.65414798     0.91746698     0.90830200     0.28828094     1.40851923    -1.05865520
O      -2.02057258     2.88581945     5.63915863    -0.06479105     0.97031952     0.72717741
O       0.03873900     4.81816802     0.85102201    -0.37347704    -0.60064283    -1.14363559
O      -1.89402354    -0.99474655     5.62106061     0.31099818     0.14816425     0.75241974
O       0.10190298     0.93073102     0.76481401    -0.22234831     0.23350253     0.37181791
O       3.55766146     2.93594645     8.87903661     0.61465278    -1.65515059     0.27152685
O       5.88179402     4.82860101     3.97828403    -0.47891442    -1.86250911     0.69437577
O       3.64714946    -0.91022657     8.88127460     0.66301756     1.57136062     0.32364801
O       5.82150898     0.98541202     4.12568302    -0.50847441     0.27022767    -0.68318042
O       0.12992344     2.67213847     9.10518961    -0.31876960    -0.09889469    -0.53799068
O       1.93980499     4.46278300     4.18194498    -0.11643965     0.94321700    -0.14990103
O      -0.04594253    -0.82710256     9.00099461     0.01589071     0.36484019    -0.86400771
O       1.80479298     0.96669502     4.16510101     0.50565108     0.49417290    -2.18992996
O       1.89682643     0.81632243     7.92765063     0.25854149     0.90420204     0.72377866
O       3.90708402     2.69382198     3.11048599    -0.42564654     0.83643519     0.76514156
O       1.88465647    -2.66512454     8.19530563    -0.87384013    -0.87858664    -0.26329803
O       3.84620001    -0.85182800     3.38959900    -1.82191214    -0.31329752    -0.54315860
O      -1.94946152     1.04720643     7.98478061     0.17387760     0.14472591     0.45780848
O      -0.06746301     2.72529099     3.11943200    -0.09278626     0.68029949     0.08262372
O      -1.87722253    -2.67761154     8.19736164     0.29922484    -0.79783186    -0.53402604
O      -0.02453800    -0.82212401     3.30762399     1.86416670    -0.51845337    -0.57309242
O       3.83725347     4.97195444     6.60418764    -0.08673825    -1.26591988    -0.80484069
O       5.69524698     6.62410498     1.78541002    -0.09164084    -0.13749005    -2.49861363
O       3.80988443     0.64423843     6.35920165     1.19673532     1.16831305     0.54941898
O       5.69156401     2.69254201     1.37188398     0.23094249     0.74928505     0.33220259
O       0.00794443     4.72670444     6.60075561    -0.09316190    -0.83767575    -0.44356611
O       1.92045901     6.53176900     1.65995802    -0.21062074    -0.20702325     0.42905171
O       0.04181844     0.84944045     6.22767364    -0.97041440     0.70184895     1.77804654
O       1.86024102     2.84845303     1.47851002     0.67715092     0.48793643     0.77688328
