# total energy = -39033.56800150 eV

CRYSTAL
PRIMVEC
        5.93200024     0.00000000     0.00000000
        0.00000000     9.29399984     0.00000000
        0.00000000     0.00000000     9.29399984
PRIMCOORD
46 1
Ti      4.45405602     6.93051199     7.01238598    -0.35196256    -0.97057098    -1.36679226
Ti      4.37047501     7.09967001     2.29932299     1.06232417    -0.00461950     0.43557486
Ti      4.45004401     2.42495300     6.85556202     1.43849624     1.60494541    -0.49062040
Ti      4.43184899     2.38024599     2.20305300     0.12349116     0.71433268     1.52496556
Ti      1.53091698     6.98904000     6.97172098     0.53016398     0.51428536    -0.19109654
Ti      1.45191198     6.98280000     2.36611098    -1.64740899     0.52809604    -0.15453107
Ti      1.56209198     2.10527703     7.18899698    -0.56501093     1.65648396    -1.30557813
Ti      1.42777002     2.16740402     2.24253798     0.28094300     0.80808388     0.24771868
Ti      2.79993102     4.41133797     4.49266400     2.13994332     1.15440209     2.27280513
Ti      2.98096398     4.84983901     9.26512899    -0.52822717    -0.30059524    -0.72857480
Ti      3.01423701     0.07885900     4.72615399     0.04291147    -0.69537645    -0.52610858
Ti      2.97442700     0.03552700     9.23055900    -0.44850186    -1.98179111    -0.66382797
Ti      0.01425000     4.69770701     4.67791001    -1.87584902     0.36032610     1.16094992
Ti      0.05074302     4.73910200     9.19945603    -0.28684523    -0.54614288     0.01701917
Ti      0.04411999     9.10352699     4.93931500     0.68774130    -0.55867573    -1.49277431
Ti      5.84190099     0.13078399     0.02422801     0.58118986    -1.67998720    -1.18791669
O       4.32678699     5.52532297     5.77107501     1.14438379    -0.03015417    -0.79326327
O       4.45982998     5.34362600     0.89969298    -0.34020001     1.15116996     1.06118928
O       4.72406300     0.99801099     5.53227901    -1.91249960    -0.43371493    -0.43820510
O       4.48689501     0.89776402     1.05740198    -0.16663891     0.41690042    -0.18119393
O       1.47202400     5.43154700     5.55180999     0.60785992     0.31932547    -0.11118611
O       1.56996100     5.80909502     0.81488100     0.16349240    -2.13331142     0.00213427
O       1.46676498     0.84501500     5.74362399     0.47628907    -0.51776303    -1.08244640
O       1.50597400     0.92714902     0.80824702    -0.43736512     0.97036966     0.94042170
O       4.53982898     8.43750302     8.40447098    -0.20794499    -0.17993255    -0.48106052
O       4.45174299     8.36315901     3.85764802     0.15096418     0.27121755    -1.17085073
O       4.51870698     3.74531602     8.21277298     0.10834093     0.94313395     1.47075537
O       4.45560900     3.65203302     3.98079301    -1.05036828    -0.84715952    -1.93665332
O       1.56666698     8.58714402     7.93983198    -0.31296173     0.00436471     2.70567596
O       1.48839600     8.33686102     3.77227501    -0.37646441     1.27744280     0.02600698
O       1.54156800     3.72870498     8.58172202     0.10826174    -0.87761194    -0.11486022
O       1.38356699     3.85289299     3.56380801     0.36949363    -1.65273324    -0.42544883
O       2.96440402     6.02784498     7.86610801     0.15267473     0.51124040     0.24114565
O       2.87347401     6.26144398     3.17787100     1.21230850    -2.16677640     0.80679653
O       3.15167900     1.28742099     7.89271202     0.14121764     2.18546498    -1.06839120
O       2.84643199     1.33024900     3.25652499    -0.09334599     1.08851575    -0.36427120
O       0.16009501     6.26550600     8.03022101    -1.52294467    -1.24625762     0.18966264
O       5.81668098     5.93426898     3.19721100     0.20968100     1.45412881    -0.33916591
O       0.00103100     1.46168202     7.84327999    -0.85952216    -0.72200923     1.71552757
O       2.93300401     7.84272298     6.03077901     1.51426437     0.30185585    -0.30275111
O       2.94410901     7.97262001     1.23958998     0.21969108    -1.08413845     1.50783506
O       2.86755199     3.17877801     6.08951901    -0.06048111    -0.46247375    -0.31273805
O       0.01692298     7.60886500     5.92037099    -0.41369528     0.36770954     0.56584114
O       5.84305200     7.67296000     1.26231799    -0.05479151     1.77150950     0.45038571
O       0.12575400     3.19673400     6.07136801    -0.21882359    -0.06889222     0.28378536
O       5.87569499     3.34794100     1.55826100     0.26572567    -1.21461761    -0.39588936
