# total energy = -4986.74995535 eV

CRYSTAL
PRIMVEC
        3.47988061     0.00000000     0.00000000
       -0.00000775     3.47988061     0.00000000
       -1.73996760    -1.73997147     4.44110160
PRIMCOORD
6 1
Ti     -0.00015324     2.61004226     1.11027528     0.00233868    -0.00208722    -0.00286807
Ti      1.74005842    -0.87013322     3.33082603    -0.00233868     0.00208722     0.00286807
O       0.00003476     0.86996424     0.72341911     0.00065846     0.00364891     2.02091792
O       1.73987031     0.86994471     3.71768225    -0.00065846    -0.00364891    -2.02091792
O      -0.00001965    -0.86994914     2.94396986     0.00367051     0.00052476     2.01619043
O       1.73992468     2.60985804     1.49713149    -0.00367051    -0.00052476    -2.01619043
