# total energy = -19925.97548627 eV

CRYSTAL
PRIMVEC
        7.50225314     0.00000000     0.00000000
        0.00002640     4.29943563     0.00000000
        0.00000000     0.00000000    11.35028195
PRIMCOORD
24 1
Ti      2.71922167     2.54784171     4.21087380     0.31315997     0.03541207     1.94392877
Ti      4.78305805     1.75159428     7.13940862    -0.31315997    -0.03541207    -1.94392877
Ti      6.47021966     1.75159580     1.46422209     0.31220737    -0.03508246    -1.94446639
Ti      1.03206005     2.54784031     9.88606044    -0.31220737     0.03508246     1.94446639
Ti      2.71920858     0.39812395     1.46426758     0.31315997     0.03541207    -1.94392877
Ti      4.78307113     3.90131215     9.88601495    -0.31315997    -0.03541207     1.94392877
Ti      1.03204697     0.39812225     7.13936312    -0.31220737     0.03508246    -1.94446639
Ti      6.47023275     3.90131379     4.21091929     0.31220737    -0.03508246     1.94446639
O       2.37451986     1.51390445     5.79196218     1.45446537     0.83251940    -1.22083480
O       5.12775986     2.78553148     5.55832023    -1.45446537    -0.83251940     1.22083480
O       1.37666929     1.51392177     0.11685750    -1.45427845     0.83219133    -1.22064479
O       6.12561048     2.78551422    11.23342457     1.45427845    -0.83219133     1.22064479
O       5.12774678     0.63581367     0.11682068    -1.45446537    -0.83251940    -1.22083480
O       2.37453294     3.66362232    11.23346138     1.45446537     0.83251940     1.22083480
O       6.12559740     0.63579634     5.79199900     1.45427845    -0.83219133    -1.22064479
O       1.37668220     3.66363965     5.55828336    -1.45427845     0.83219133     1.22064479
O       0.27259025     2.61516051     3.06599442    -1.80572010     0.64225307     0.60001805
O       7.22968946     1.68427548     8.28428800     1.80572010    -0.64225307    -0.60001805
O       4.02372608     1.68423528     2.60918284    -1.80523416    -0.64201652    -0.60100381
O       3.47855363     2.61520071     8.74109934     1.80523416     0.64201652     0.60100381
O       0.27257717     0.46544263     2.60914661    -1.80572010     0.64225307    -0.60001805
O       7.22970254     3.83399336     8.74113557     1.80572010    -0.64225307     0.60001805
O       3.47854055     0.46548283     8.28432416     1.80523416     0.64201652    -0.60100381
O       4.02373916     3.83395316     3.06595819    -1.80523416    -0.64201652     0.60100381
