# total energy = -19931.40979935 eV

CRYSTAL
PRIMVEC
        6.41275754     0.00000000     0.00000000
        0.00003191     6.17510230     0.00000000
        0.00000000     0.00000000    10.95827709
PRIMCOORD
24 1
Ti      2.32433512     3.65935985     4.06544274     0.18958473    -0.81095298     0.67982667
Ti      4.08845434     2.51574233     6.89283472    -0.18958473     0.81095298    -0.67982667
Ti      5.53060213     2.51574445     1.41365222     0.19066794     0.81074523    -0.67974054
Ti      0.88218739     3.65935804     9.54462543    -0.19066794    -0.81074523     0.67974054
Ti      2.32431923     0.57180882     1.41369618     0.18958473    -0.81095298    -0.67982667
Ti      4.08847029     5.60329354     9.54458147    -0.18958473     0.81095298     0.67982667
Ti      0.88217143     0.57180657     6.89279083    -0.19066794    -0.81074523    -0.67974054
Ti      5.53061803     5.60329585     4.06548670     0.19066794     0.81074523     0.67974054
O       2.02968951     2.17435842     5.59192506     1.14936324     1.28919171    -0.37570285
O       4.38310001     4.00074376     5.36635240    -1.14936324    -1.28919171     0.37570285
O       1.17674932     2.17438339     0.11282161    -1.14914804     1.28940974    -0.37674337
O       5.23604026     4.00071885    10.84545560     1.14914804    -1.28940974     0.37674337
O       4.38308405     0.91319254     0.11278608    -1.14936324    -1.28919171    -0.37570285
O       2.02970547     5.26190963    10.84549113     1.14936324     1.28919171     0.37570285
O       5.23602431     0.91316763     5.59196065     1.14914804    -1.28940974    -0.37674337
O       1.17676509     5.26193461     5.36631687    -1.14914804     1.28940974     0.37674337
O       0.23300983     3.75604729     2.96010410    -0.13929599    -0.12787489     0.14378154
O       6.17977968     2.41905495     7.99817336     0.13929599     0.12787489    -0.14378154
O       3.43939428     2.41899748     2.51906947    -0.13865399     0.12833949    -0.14368641
O       2.97339517     3.75610476     8.43920786     0.13865399    -0.12833949     0.14368641
O       0.23299388     0.66849607     2.51903444    -0.13929599    -0.12787489    -0.14378154
O       6.17979558     5.50660616     8.43924283     0.13929599     0.12787489     0.14378154
O       2.97337928     0.66855355     7.99820833     0.13865399    -0.12833949    -0.14368641
O       3.43941024     5.50654863     2.96006913    -0.13865399     0.12833949     0.14368641
