# total energy = -19961.39263329 eV

CRYSTAL
PRIMVEC
        5.28091795     0.00000000     0.00000000
        0.28087810     5.61347096     0.00000000
        0.00000000     0.00000000     9.45463738
PRIMCOORD
24 1
Ti      2.08052679     3.32653755     3.50760303     0.21463371    -0.44540754     0.34058028
Ti      3.48126904     2.28693320     5.94703446    -0.21463371     0.44540754    -0.34058028
Ti      4.66888058     2.28693511     1.21967793    -0.24120402    -0.06299257     0.03113941
Ti      0.89291530     3.32653585     8.23495967     0.24120402     0.06299257    -0.03113941
Ti      1.94008785     0.51980229     1.21971582     0.21444268    -0.44449942    -0.33776903
Ti      3.62170798     5.09366862     8.23492178    -0.21444268     0.44449942     0.33776903
Ti      0.75247636     0.51980021     5.94699651     0.24088649     0.06240224     0.02903034
Ti      4.80931953     5.09367070     3.50764098    -0.24088649    -0.06240224    -0.02903034
O       1.77034574     1.97659847     4.82462909     0.39248778     0.44215406    -0.12955074
O       3.79145008     3.63687228     4.63000840    -0.39248778    -0.44215406     0.12955074
O       1.06794903     1.97662112     0.09734079    -0.22668139     0.10901816     0.16483194
O       4.49384685     3.63684968     9.35729643     0.22668139    -0.10901816    -0.16483194
O       3.65101114     0.83013685     0.09731013    -0.39288425    -0.44191855    -0.12966104
O       1.91078468     4.78333390     9.35732709     0.39288425     0.44191855     0.12966104
O       4.35340791     0.83011425     4.82465980     0.22653201    -0.10913823     0.16497695
O       1.20838786     4.78335661     4.62997769    -0.22653201     0.10913823    -0.16497695
O       0.36271394     3.41443113     2.55393347     0.00674169     0.02135610     0.07382103
O       5.19908194     2.19903962     6.90070407    -0.00674169    -0.02135610    -0.07382103
O       2.94236682     2.19898732     2.17341534     0.24036507     0.12098099    -0.10413357
O       2.61942906     3.41448343     7.28122199    -0.24036507    -0.12098099     0.10413357
O       0.22227500     0.60769570     2.17338516     0.00623390     0.02108897    -0.07444118
O       5.33952088     5.00577505     7.28125216    -0.00623390    -0.02108897     0.07444118
O       2.47899012     0.60774800     6.90073419    -0.24082401    -0.12048760    -0.10352011
O       3.08280576     5.00572275     2.55390325     0.24082401     0.12048760     0.10352011
