# total energy = -19961.22822557 eV

CRYSTAL
PRIMVEC
        7.60600008     0.00000000     0.00000000
        0.00000000     7.60600008     0.00000000
       -1.89786986    -1.89786986     4.85670466
PRIMCOORD
24 1
Ti      3.77109198     6.63255202     1.24302699    -0.02137102    -0.70317512    -0.05148893
Ti      3.82324398     2.84499898     1.23845098    -0.92929807     0.48918907    -1.66872473
Ti      0.00718998     6.60405900     1.18233501     0.16230712     2.19066710     1.35771344
Ti      0.00799798     2.95922200     1.14949602     0.18747848    -1.75521487     1.22770659
Ti      5.71574524     2.89214920     3.62541879     1.65616952    -0.19753587    -0.54884922
Ti      5.67647822    -0.97290878     3.64851082     1.46815521     0.30341831     0.60908839
Ti      1.93131524     2.87021422     3.60996179    -1.66002489    -0.73417647     0.47028631
Ti      1.90835525    -1.00237776     3.65891682    -1.43905083     0.53515938    -0.08779292
O       3.66932997     4.70167700     0.70366900     0.39829077    -0.26700608     1.30525083
O       3.64157801     0.82662598     0.81475400     0.68321950     2.34303484     0.10138841
O       0.05428099     4.83042000     0.78499100    -0.51754912    -0.87790736    -0.54385923
O       0.10360798     0.99966901     0.80045399    -0.86330631    -0.56504718    -0.64016250
O       5.90852821     4.77692421     4.05165382    -0.91126795    -0.39066693    -0.10887160
O       5.89252822     1.00090421     4.12514384    -1.01779882    -0.09549672    -1.33602489
O       1.76945421     4.69995723     4.20452079     0.60831398     0.37282064    -1.86661799
O       1.80278624     0.95926225     4.06901279     0.72116308    -1.40219971     0.01499005
O       3.79626425     2.88465722     3.16456579     0.16979932    -0.19155240     0.91362205
O       3.79196125    -1.05449680     3.24867883     0.10548109     0.09331977     0.66129929
O      -0.01879378     2.75490523     3.14382680    -1.06366603     0.51393440     0.55313346
O      -0.00345177    -1.07036375     3.18582480     0.16952266     0.49253947    -0.09609604
O       5.69266702     6.58610597     1.62575401    -0.06828210     0.32212644    -0.02266197
O       5.64611102     2.97317799     1.61415497     0.37067299    -0.24943361    -0.26171757
O       1.89602198     6.63508599     1.64819203    -0.14073915    -0.23463459     0.68359051
O       1.78534202     2.96411397     1.69500998     1.93178108     0.00783775    -0.66520223
