# total energy = -19072.08621809 eV

CRYSTAL
PRIMVEC
        5.17600016     0.00000000     0.00000000
        0.00000000     5.50899976     0.00000000
        0.00000000     0.00000000     9.26300011
PRIMCOORD
22 1
Ti      1.75836398     3.30220601     3.18358601     1.29232409     0.95023714    -0.17972352
Ti      3.55869801     2.26773799     6.02211198     0.75702330    -0.52517887    -0.25570376
Ti      4.45758198     2.12927199     1.22374599    -0.61535983    -0.74025404    -1.09604600
Ti      0.72759200     3.31752400     8.08377702     0.39273384     1.10056086     2.11698619
Ti      1.79827500     0.48588801     1.30549202    -0.56721488     1.03456447    -1.50411725
Ti      3.22554701     5.03042397     7.98716302     1.12368537     2.56480697     1.49061612
Ti      0.58622700     0.44047000     5.96755201     1.67813369     0.05559936    -0.76078611
Ti      4.37400600     4.88710198     3.49900300    -0.16902773     0.41773371     0.17861229
O       3.34449097     3.41137099     4.57230697    -0.88367769     0.25478639     0.03224293
O       0.94914300     2.13071098     0.34887402    -0.79925034    -0.40320055    -0.86509992
O       4.44219599     3.98938500     9.08198900     0.36135711    -1.41029406     0.05200984
O       3.36110000     0.92963198     0.03949700     1.12553605     1.27014472     0.22826185
O       1.49492002     4.91869698     9.17989001    -0.12782013    -0.69396028    -2.51552250
O       4.73448102     1.01554200     4.60474803    -2.90318535     1.13995609     0.51319650
O       0.84245098     4.77173398     4.31537300     1.93047367    -2.40964520     1.20549559
O       0.02048498     3.37032001     2.48795102     0.02512766    -0.38088979     0.46898327
O       0.41278900     2.46047699     6.41276000    -1.09142418    -1.05038062     0.76873365
O       2.78035897     1.86905600     2.28776200    -0.53135775     0.92723733     1.41220053
O       2.68317801     3.41081498     7.68998702    -1.91222243    -3.80776329    -3.16648492
O       0.00093299     0.44211500     2.18256802     0.45947559     1.78845179    -1.80264660
O       2.53898202     0.41947198     6.31491401    -0.34798711     1.56253505     0.58938345
O       2.64731498     4.59706702     2.07395201     0.80265654    -1.64504692     3.08940862
