# total energy = -19075.29753345 eV

CRYSTAL
PRIMVEC
        5.17600016     0.00000000     0.00000000
        0.00000000     5.50899976     0.00000000
        0.00000000     0.00000000     9.26300011
PRIMCOORD
22 1
Ti      1.90444399     3.41238801     3.26295100    -0.53161871     0.32317467     0.74186844
Ti      3.55680800     2.25962602     5.86812701    -0.79065771    -0.21744882    -0.86141578
Ti      4.37412898     2.26476502     1.24117302     0.58423430    -0.46506774    -1.55244783
Ti      0.80589599     3.25201900     8.10416998    -0.05631978    -0.24356044     1.33103977
Ti      1.78498202     0.48941699     1.34378699    -0.13146081     0.64398033    -2.24110727
Ti      3.23974103     4.95770698     8.07414002     0.06851838     0.55989649     0.96198889
Ti      0.65131099     0.37664101     6.06837499     0.59042989    -0.43549284    -1.96281276
Ti      4.42915400     4.96898501     3.34598399     0.63246153     0.58620402     2.01840440
O       3.50484898     3.48019800     4.32984399    -0.44385845    -0.38125103     1.85264224
O       0.84761601     1.88447200     0.24471902    -0.35490698     0.21144349    -1.45803175
O       4.30372698     3.61461299     9.02129300    -0.22697399    -0.09284154     0.30496766
O       3.38850101     0.79409402     0.22199203     0.72982513     0.43022105    -0.70952781
O       1.68726298     4.58468798     9.16576098    -0.84718523     0.33631559     0.31438536
O       4.15225999     0.91237498     4.58619698    -0.04209360    -0.48156292     1.16415301
O       0.91471002     4.77393901     4.44637602     0.19065868    -0.34480537     0.91849481
O       0.16796001     3.51779599     2.37769298    -0.03170531    -0.57313639    -0.19386099
O       0.11669602     2.18251701     6.49150898     0.22770392    -0.00113926     0.79183013
O       2.60760599     2.04669901     2.15450400     0.46385366     0.15818487     0.89341857
O       2.44277500     3.46432200     7.16092101     0.39387181    -1.07383783    -1.78629464
O       0.11750100     0.73890300     2.21798199    -0.20287451    -0.00748011    -0.02639624
O       2.43712000     0.66062498     6.73573402    -0.27150654     0.47057376    -0.34584641
O       2.78582601     4.71936300     2.32950901     0.04960483     0.59762975    -0.15545307
