# total energy = -19927.71945988 eV

CRYSTAL
PRIMVEC
        6.18100093     0.00000000     0.00000000
        1.61934348     6.37603206     0.00000000
        0.00000000     0.00000000    11.15143975
PRIMCOORD
24 1
Ti      3.19993706     3.77843088     4.13710482    -0.08962715    -1.96892428     0.79145424
Ti      4.60040752     2.59760160     7.01433556     0.08962715     1.96892428    -0.79145424
Ti      5.99043677     2.59760380     1.43857085    -0.12439002    -0.48216790    -0.13262089
Ti      1.80990785     3.77842893     9.71286966     0.12439002     0.48216790     0.13262089
Ti      2.39026546     0.59041490     1.43861556    -0.08962715    -1.96892428    -0.79145424
Ti      5.41007916     5.78561783     9.71282495     0.08962715     1.96892428     0.79145424
Ti      1.00023612     0.59041245     7.01429085     0.12439002     0.48216790    -0.13262089
Ti      6.80010849     5.78562022     4.13714953    -0.12439002    -0.48216790     0.13262089
O       2.52652420     2.24510942     5.69049461     1.78400378     2.00954335    -0.62604508
O       5.27382033     4.13092307     5.46094577    -1.78400378    -2.00954335     0.62604508
O       1.70441573     2.24513515     0.11481035    -0.71949366     0.08393292     0.96413859
O       6.09592894     4.13089745    11.03662971     0.71949366    -0.08393292    -0.96413859
O       4.46414870     0.94290690     0.11477417    -1.78400378    -2.00954335    -0.62604508
O       3.33619589     5.43312558    11.03666589     1.78400378     2.00954335     0.62604508
O       5.28625730     0.94288121     5.69053079     0.71949366    -0.08393292     0.96413859
O       2.51408723     5.43315134     5.46090958    -0.71949366     0.08393292    -0.96413859
O       1.20954656     3.87826428     3.01228226     0.48340691     1.56493234     1.65457775
O       6.59079797     2.49776821     8.13915812    -0.48340691    -1.56493234    -1.65457775
O       3.94943477     2.49770875     2.56347343     0.72641456     1.57815862     0.74677513
O       3.85090982     3.87832380     8.58796677    -0.72641456    -1.57815862    -0.74677513
O       0.39987493     0.69024811     2.56343781     0.48340691     1.56493234    -1.65457775
O       7.40046967     5.68578443     8.58800238    -0.48340691    -1.56493234     1.65457775
O       3.04123819     0.69030756     8.13919368    -0.72641456    -1.57815862     0.74677513
O       4.75910640     5.68572492     3.01224664     0.72641456     1.57815862    -0.74677513
