# total energy = -19961.33990318 eV

CRYSTAL
PRIMVEC
        7.60600008     0.00000000     0.00000000
        0.00000000     7.60600008     0.00000000
       -1.89786986    -1.89786986     4.85670466
PRIMCOORD
24 1
Ti      3.90116798     6.62322400     1.19767301    -1.44458385    -0.36645896    -0.01767943
Ti      3.81650300     2.75510801     1.19654199    -0.17906172     0.79688467    -0.14984806
Ti     -0.02975601     6.64217098     1.16595402     1.36876019     1.55935588     0.43058563
Ti     -0.04966403     2.93471701     1.26118401     0.22628622    -1.18925187     0.19555407
Ti      5.65842021     2.83245721     3.67660383     1.26411856     0.43363831    -0.26452959
Ti      5.69989723    -0.91302078     3.63173479     0.48191644    -0.48416153     0.97669201
Ti      1.96893620     2.81552222     3.66191382    -1.11605048     0.07951448    -0.49309380
Ti      1.94974220    -0.96882676     3.66740880    -0.56525081     0.16777509    -2.06623260
O       3.85388599     4.67919501     0.71749900     0.08722805     0.22994361     1.19119639
O       3.83512602     0.92218799     0.72346902     0.05956605    -0.12525725     0.48912865
O      -0.17923599     4.79845399     0.83162300     0.49279787    -1.21581703    -0.49017611
O      -0.07080497     0.93721202     0.82776102     0.32567584     0.89406572    -0.85050247
O       5.49454423     4.79822322     4.01908280     0.35349082    -0.19466343     0.11595911
O       5.60898124     0.97665620     4.00753382     0.69216000     0.17345543     1.23381167
O       1.97243321     4.68593022     4.08112481     0.35278531     0.91529867    -0.59637017
O       1.83771421     0.89944220     4.08599483     0.06389554     0.18295000    -0.59981468
O       3.85961920     2.80357620     3.09152583    -1.87213275    -0.02785508     1.11104376
O       3.87955220    -0.64815677     3.14088384    -1.22053655    -1.14276785     0.15773492
O      -0.05250179     2.94518223     3.35838082     0.26846338    -0.12096248    -0.73111248
O      -0.00681877    -1.01892079     3.20076881     0.19486218     0.11622676     0.10162315
O       5.72106903     6.65391702     1.52858500    -0.42249283    -0.02578612     0.83050982
O       5.72189200     2.75161798     1.67239501    -0.37976699     0.22908023    -0.47448827
O       1.92452802     6.74466902     1.59355299     0.06899558    -0.77961790     0.37314100
O       1.80734002     2.85825101     1.69216898     0.89887394    -0.10558959    -0.47313329
