# total energy = -39040.39188479 eV

CRYSTAL
PRIMVEC
        7.60629642    -0.00000847    -0.00005503
       -0.00000847     7.60629642    -0.00005503
       -3.80314186    -3.80314186     9.70738094
PRIMCOORD
46 1
Ti      1.91997643     4.73846378     6.07070875    -0.01801804    -0.00533967     0.03460012
Ti      3.80314429     6.64085501     1.20917658    -0.00014424     0.03747256    -0.02331709
Ti      1.81805244     0.95707075     6.01645638    -0.00603361    -0.00058261     0.00337509
Ti      3.80300803     2.87102074     1.19129269     0.00016969    -0.01701531    -0.01590305
Ti     -1.92029174     4.73840685     6.07077448     0.01815302    -0.00542117     0.03470116
Ti      0.00002069     6.67532075     1.37755328    -0.00009565    -0.01412436    -0.04970818
Ti     -1.81805061     0.95700524     6.01655716     0.00620125    -0.00055690     0.00324705
Ti     -0.00012497     2.78892934     1.16476969     0.00006839     0.01846027    -0.02138002
Ti      3.80319644     0.92439020     8.63408016    -0.00015272     0.00560321     0.00957479
Ti      5.71173797     2.85830729     3.60694601    -0.01597427     0.01491266     0.01640236
Ti      3.80320391    -2.80927103     8.49134232     0.00003522    -0.01152960    -0.01194098
Ti      5.67305222    -0.95644151     3.66574357     0.00612257    -0.01069219     0.00079884
Ti      0.00017830     0.95397161     8.42982608    -0.00009616    -0.03094092    -0.01270742
Ti      1.89481798     2.85836056     3.60692431     0.01593159     0.01484093     0.01652963
Ti      0.00007856    -2.88240580     8.49407157    -0.00002803    -0.02082851    -0.00664682
Ti      1.93332561    -0.95639285     3.66573610    -0.00599710    -0.01057109     0.00087726
O       2.00571815     2.83080766     5.64643119    -0.00679183     0.00654449    -0.01520268
O       3.80316461     4.75294216     0.75414142     0.00001748    -0.00251043     0.01834817
O       2.05001715    -0.92422489     5.70278657     0.00205791    -0.01770745    -0.01346410
O       3.80314701     0.95488686     0.75969288     0.00004139    -0.00001980    -0.00312621
O      -2.00578931     2.83077016     5.64646794     0.00662574     0.00645733    -0.01524279
O       0.00006032     4.83985533     0.80788629     0.00000154    -0.00286678     0.05055022
O      -2.05007449    -0.92424595     5.70284691    -0.00220138    -0.01761952    -0.01347696
O       0.00011544     0.86637176     0.78361773    -0.00006351     0.02370455    -0.00118476
O       5.73128260     4.75163032     4.08889621     0.01103209    -0.00943081     0.01377135
O       3.80307009    -0.95093617     8.90943685     0.00009565     0.02161142     0.02360479
O       5.66192863     0.95575077     4.04854829    -0.01366233     0.00520880    -0.01722023
O      -0.00001648     2.83685032     8.89552990    -0.00003162     0.01269560    -0.01064077
O       1.87494365     4.75166452     4.08888319    -0.01094776    -0.00940844     0.01383537
O      -0.00004093    -0.92476948     8.83203195     0.00000823    -0.00196021     0.02050867
O       1.94445636     0.95579044     4.04854586     0.01361271     0.00513912    -0.01722460
O       2.03737188     1.11248972     8.02044693    -0.00933414     0.01634605    -0.01918712
O       3.80316444     2.88929617     3.16188103     0.00007353     0.01271745    -0.01062997
O       1.92066550    -2.97016834     8.09669979    -0.01462624     0.01432259     0.00058647
O       3.80317224    -0.98642535     3.23058056    -0.00003702    -0.01318899    -0.02466872
O      -2.03745117     1.11253310     8.02033975     0.00936113     0.01632625    -0.01894569
O       0.00001297     2.82765562     3.22376731     0.00003728    -0.01576061     0.01177257
O      -1.92069819    -2.97016947     8.09672190     0.01466789     0.01437684     0.00045071
O       0.00000687    -0.92611220     3.32564057     0.00003085     0.00685662     0.00821211
O       3.80308576     4.71247291     6.49946881     0.00002494    -0.00100479    -0.01914367
O       5.68960694     6.65799490     1.67441416    -0.01475145    -0.00440790     0.00435802
O       5.72038386     2.85166675     1.59496886    -0.02174434    -0.00216256     0.00990646
O      -0.00002947     4.78155826     6.47650620    -0.00004602    -0.00715050     0.01849369
O       1.91672397     6.65798800     1.67442616     0.01471983    -0.00437345     0.00438682
O       0.00000526     0.90915444     6.44943530    -0.00013421    -0.01423569     0.01219526
O       1.88592222     2.85173455     1.59500039     0.02182276    -0.00218647     0.00987458
