# total energy = -4984.75640983 eV

CRYSTAL
PRIMVEC
        3.78491124     0.00000000     0.00000000
        0.00000000     2.85537248     0.00000000
        0.00000000    -0.00007549     5.00613130
PRIMCOORD
6 1
Ti      1.89245557     1.42764834     2.50306570     0.00000000     0.00000000     0.00000000
Ti      0.00000000     0.00000000     0.00000000     0.00000000     0.00000000     0.00000000
O       1.89245557     0.55645527     0.97562128     0.00000000    -2.03740435    -1.08754824
O       1.89245557     2.29884141     4.03051012     0.00000000     2.03740435     1.08754824
O       0.00000000     0.87116306     3.47868801    -0.00000000     2.03897221    -1.08810386
O       0.00000000     1.98413363     1.52744338    -0.00000000    -2.03897221     1.08810386
