# total energy = -39033.68810988 eV

CRYSTAL
PRIMVEC
        5.93200024     0.00000000     0.00000000
        0.00000000     9.29399984     0.00000000
        0.00000000     0.00000000     9.29399984
PRIMCOORD
46 1
Ti      4.57358298     6.87471898     6.89320298    -1.19655123     0.42177832    -0.23185291
Ti      4.37013502     6.89124402     2.53088497     1.09445911     0.48510307    -0.26111259
Ti      4.46696302     2.32779601     6.94548803     0.25137505     0.24025528     0.17686342
Ti      4.18304699     2.73403501     1.97436302     0.87056351    -1.50718946     1.16934021
Ti      1.55417501     6.91326198     6.98089300     0.85102878     0.32469703    -0.23498786
Ti      1.33095699     7.14750102     2.14981301     0.30333244     0.21436658     1.32152515
Ti      1.57273802     2.41625597     7.01409199    -0.39817198    -1.03010721    -0.96749542
Ti      1.21034500     1.89358797     2.52571502     1.38451617     1.39918303    -0.20863147
Ti      2.85117998     4.72771702     4.58803597    -0.78658328    -0.27010631    -0.16787562
Ti      3.09506402     5.01238199     9.15402499    -0.48601118    -2.03122290     1.63198057
Ti      3.15700400     9.29011600     4.64684498    -1.09840499     0.57996704    -1.03371935
Ti      2.98727998     9.23303100     9.15324599    -0.01951262    -0.38606877     0.92796135
Ti      5.82352600     4.51999701     4.66413801     0.89084567     0.17365032    -0.82399027
Ti      0.15992398     4.65090302     9.21980300    -0.57612298    -0.94221093     0.69697336
Ti      0.11497900     9.13369702     5.02785201     0.77331278     1.24427992    -0.64128093
Ti      5.86916600     0.15271500     9.24606199    -0.01441438    -0.30890273     0.52928466
O       4.28873703     5.27106098     5.68134798     1.09070607     1.14914856    -0.18558641
O       4.31535099     5.33187900     1.17627398     0.80277301    -0.04194859    -0.15923285
O       4.56409398     0.79006899     5.68718898    -1.16645569     0.75122777    -0.19700314
O       4.44782199     1.04574299     0.89057298     0.08432862     0.03674956    -0.41432597
O       1.34741101     5.41265600     5.68756898     0.28190845    -0.46070920    -0.90267763
O       1.44254999     5.76007002     0.83635798     0.40162935    -0.43383037    -0.12441059
O       1.57174899     1.01695098     5.65241399    -0.15585468    -1.26557124    -0.45811059
O       1.57447901     0.90484103     0.83769198    -0.80510834    -0.11560790     0.88541909
O       4.58238600     8.30999802     8.45401298    -0.87323180    -0.06239504    -0.58821129
O       4.58519202     8.30571899     3.93397199    -0.16575060     0.78767754    -0.08714655
O       4.44042801     3.87528602     8.32839598     0.67424994    -0.91400746     0.52942402
O       4.24778500     3.90621400     3.58518000     0.34933566    -0.95823559    -0.58328505
O       1.50411802     8.41175701     8.12563902     0.33014648    -0.12233493     1.67830184
O       1.38522099     8.54680199     3.89336701     1.01391491    -0.00872401    -1.88811216
O       1.73112199     3.86772800     8.38105198    -1.48456914    -0.78644907     0.40911512
O       1.33695098     3.51177602     3.76380902     0.26510655     0.40212608    -0.25004682
O       3.07735399     6.05923800     7.77942401    -0.22821300     1.06435689    -0.11934448
O       2.86800602     6.28332800     3.29673998    -1.56834034    -2.31794318     1.87366718
O       3.07442499     1.24681198     7.88363002    -0.22276766     1.89191971    -0.81938337
O       3.06062903     1.34714298     3.21409498    -0.28060465     0.88834681    -0.43063603
O       5.90668202     6.07779498     7.91391197     0.73883993    -0.97115410     0.85998599
O       0.04629301     6.08693699     3.29887002     0.17214416    -0.20455396    -0.03710926
O       0.04857302     1.35124098     7.81317901     0.06526799     0.90036929     0.66644330
O       3.10346698     7.69996498     6.01825201    -0.89136477     0.82725506    -0.37489269
O       3.03317198     7.99996000     1.71399501    -1.37976400     0.32668140    -2.15821899
O       3.02168899     3.13451000     6.02282399    -0.05148250    -0.14346375     0.39046664
O       0.10646300     7.64091102     6.00453600    -0.32850740    -0.12892802     0.21644840
O       5.68137899     7.89335598     1.46822398     1.87190675     0.30855178    -0.17448901
O       0.03665399     3.03119598     5.95619602    -0.44082531     0.96773634     0.70932469
O       0.05085399     3.13779101     1.45145498     0.05692116     0.02623683    -0.14935570
