# total energy = -19518.92682111 eV

CRYSTAL
PRIMVEC
        7.60600008     0.00000000     0.00000000
        0.00000000     7.60600008     0.00000000
       -1.89786986    -1.89786986     4.85670466
PRIMCOORD
23 1
Ti      3.79400699     6.62644299     1.22049002     0.70428995     0.04029152    -1.22403942
Ti      3.87534101     2.80146801     1.23687102    -0.10998104    -0.14977479     0.78563660
Ti      0.06878399     6.80790300     1.21353398    -0.87111810    -0.10171596     0.71382952
Ti     -0.04165001     2.90653298     1.08406098     0.80326563    -0.38647320     0.09686686
Ti      5.56200221     2.92300823     3.78321881     0.09556151    -0.46455249    -1.66661797
Ti      5.69975022    -1.01270677     3.57382084    -0.14863733     0.95187674    -0.20401505
Ti      2.04535421     2.72863825     3.68817879    -0.71388968     0.97258904    -0.21533743
Ti      1.89760522    -0.98703675     3.60649679    -0.20281795    -0.82098440     0.74811931
O       4.03708102     4.67916199     0.86912098    -0.92839973    -0.11574468    -0.53035784
O       3.95575600     0.93966999     0.71900101    -0.19315728    -0.44689518     0.29733328
O      -0.05114302     4.92575002     0.76699602     0.57554474    -1.31406612     1.23896108
O      -0.19828197     0.97502797     0.79465500     0.59924929     0.08500070    -0.67075221
O       5.52787721     4.78359422     3.98975881     0.96483819     0.75341578     0.14640073
O       5.62594825     1.00900221     4.07771283     0.38595641    -0.40992913    -0.46001758
O       1.71361220     4.62546823     3.97441982    -0.04372497     0.26340859     0.52731160
O       1.87466121     0.88682820     4.01646279    -0.10702298     0.70637872     0.58324006
O       3.79571020     2.72722725     3.27390783     0.22098614     0.30175969    -0.80054309
O       3.72875023    -1.13666580     3.09026581     0.70227112     0.34491156     1.31639477
O       0.03095322    -0.82545677     3.23489879    -1.14215130    -0.55114856    -0.33471096
O       5.66273702     6.67988502     1.65701902     0.81404293     0.11208703     0.11067266
O       5.84850602     2.81020499     1.73663199    -0.59421301     0.35860398     0.32118130
O       1.92736398     6.88430302     1.64107798    -0.90944349    -0.34993473    -0.99316301
O       1.77324598     2.75663601     1.67265801     0.09855119     0.22089564     0.21360733
