# total energy = -39481.09746985 eV

CRYSTAL
PRIMVEC
        5.93188753     0.00000000     0.00000000
        0.00000000     9.29428401    -0.00002646
        0.00000000    -0.00002646     9.29428401
PRIMCOORD
47 1
Ti      4.44891576     6.98461370     6.93855819     0.00000000    -0.04402296     0.03194391
Ti      4.44891576     7.04809896     2.40094372     0.00000000     0.01404543     0.01404543
Ti      4.44891576     2.40484491     7.05200015     0.00000000    -0.02268382    -0.02268382
Ti      4.44891576     2.29142942     2.33748493     0.00000000     0.03194391    -0.04402296
Ti      1.48297199     6.94175543     6.98047914     0.00000000    -0.02009318     0.01433956
Ti      1.48297199     7.00931506     2.36215983     0.00000000     0.08794410     0.08794410
Ti      1.48297199     2.14095036     6.78810560     0.00000000     0.03003949     0.03003949
Ti      1.48297199     2.33335037     2.29462665     0.00000000     0.01433956    -0.02009318
Ti      2.96333471     4.65087999     4.63841035    -0.00296011    -0.01461904    -0.00979128
Ti      3.08862584     4.76105524     0.11390001    -0.05644036    -0.00071374    -0.00071374
Ti      3.00661654    -0.00899706     4.63815817    -0.01397781     0.00622979     0.00622979
Ti      2.96333471    -0.00871842     0.00375122    -0.00296011    -0.00979128    -0.01461904
Ti      0.00260905     4.65087999     4.63841035     0.00296011    -0.01461904    -0.00979128
Ti     -0.12268208     4.76105524     0.11390001     0.05644036    -0.00071374    -0.00071374
Ti     -0.04067278    -0.00899706     4.63815817     0.01397781     0.00622979     0.00622979
Ti      0.00260905    -0.00871842     0.00375122     0.00296011    -0.00979128    -0.01461904
O       4.44891576     5.54971359     5.54386436     0.00000000    -0.00427626     0.00275211
O       4.44891576     5.62662654     0.97947130     0.00000000     0.02440029     0.02440029
O       4.44891576     0.91747832     5.56463355     0.00000000     0.02477285     0.02477285
O       4.44891576     0.89673559     0.90258482     0.00000000     0.00275211    -0.00427626
O       1.48297199     5.57169330     5.52339416     0.00000000    -0.01618844     0.00780767
O       1.48297199     5.44833839     0.80118316     0.00000000     0.02661478     0.02661478
O       1.48297199     0.87715979     5.52431502     0.00000000    -0.08171432    -0.08171432
O       1.48297199     0.87626538     0.92456453     0.00000000     0.00780767    -0.01618844
O       4.44891576     8.38428970     8.36496277     0.00000000    -0.03470502    -0.02022302
O       4.44891576     8.38616691     3.73901168     0.00000000    -0.03942043    -0.03942043
O       4.44891576     3.75666819     8.40382342     0.00000000     0.03696374     0.03696374
O       4.44891576     3.71783399     3.73716093     0.00000000    -0.02022302    -0.03470502
O       1.48297199     8.38596446     8.36288615     0.00000000    -0.01099893    -0.02108357
O       1.48297199     8.35899690     3.71184167     0.00000000     0.04392320     0.04392320
O       1.48297199     3.71575738     3.73883569     0.00000000    -0.02108357    -0.01099893
O       2.94147250     5.99389791     7.87497426    -0.00137811    -0.01516309     0.00744952
O       2.96651209     6.04745698     3.21473899     0.02101723     0.01171729    -0.02166207
O       2.92230046     1.48322640     7.91609463     0.01117222     0.01605449     0.01547702
O       2.97570906     1.40635665     3.22313435    -0.02355414    -0.00165219    -0.00839491
O       0.02447127     5.99389791     7.87497426     0.00137811    -0.01516309     0.00744952
O      -0.00056833     6.04745698     3.21473899    -0.02101723     0.01171729    -0.02166207
O       0.04364330     1.48322640     7.91609463    -0.01117222     0.01605449     0.01547702
O      -0.00976529     1.40635665     3.22313435     0.02355414    -0.00165219    -0.00839491
O       2.97570906     7.87026313     6.05348543    -0.02355414    -0.00839491    -0.00165219
O       2.96651209     7.86189422     1.40030175     0.02101723    -0.02166207     0.01171729
O       2.92230046     3.26893940     6.13038163     0.01117222     0.01547702     0.01605449
O       2.94147250     3.22784549     1.34676914    -0.00137811     0.00744952    -0.01516309
O      -0.00976529     7.87026313     6.05348543     0.02355414    -0.00839491    -0.00165219
O      -0.00056833     7.86189422     1.40030175    -0.02101723    -0.02166207     0.01171729
O       0.04364330     3.26893940     6.13038163    -0.01117222     0.01547702     0.01605449
O       0.02447127     3.22784549     1.34676914     0.00137811     0.00744952    -0.01516309
