# total energy = -19930.76239752 eV

CRYSTAL
PRIMVEC
        7.14253858     0.00000000     0.00000000
        0.00002811     5.06788057     0.00000000
        0.00000000     0.00000000    11.09685204
PRIMCOORD
24 1
Ti      2.58884347     3.00322131     4.11685296     0.54544971    -0.31695672     1.08646375
Ti      4.55372334     2.06465926     6.97999920    -0.54544971     0.31695672    -1.08646375
Ti      6.15998963     2.06466102     1.43152876     0.54520803     0.31667929    -1.08637531
Ti      0.98257718     3.00321979     9.66532346    -0.54520803    -0.31667929     1.08637531
Ti      2.58882941     0.46928115     1.43157324     0.54506584    -0.32592524    -1.08604672
Ti      4.55373739     4.59859960     9.66527898    -0.54506584     0.32592524     1.08604672
Ti      0.98256312     0.46927926     6.97995466    -0.54518412    -0.32580286    -1.08619533
Ti      6.16000369     4.59860149     4.11689744     0.54518412     0.32580286     1.08619533
O       2.26066851     1.78448692     5.66263867     0.88378464     1.14307098    -1.14715132
O       4.88189830     3.28339371     5.43421349    -0.88378464    -1.14307098     1.14715132
O       1.31066248     1.78450735     0.11424832    -0.88400884     1.14374461    -1.14851324
O       5.83190445     3.28337328    10.98260348     0.88400884    -1.14374461     1.14851324
O       4.88188430     0.74945336     0.11421229    -0.88364118    -1.14309952    -1.14711687
O       2.26068251     4.31842721    10.98263951     0.88364118     1.14309952     1.14711687
O       5.83189040     0.74943300     5.66267464     0.88363758    -1.14374590    -1.14820907
O       1.31067635     4.31844769     5.43417746    -0.88363758     1.14374590     1.14820907
O       0.25952218     3.08257224     2.99753660    -1.70954512     0.48511207     0.36422775
O       6.88304462     1.98530839     8.09931556     1.70954512    -0.48511207    -0.36422775
O       3.83079946     1.98526113     2.55092478    -1.70935640    -0.48510050    -0.36509267
O       3.31176735     3.08261950     8.54592720     1.70935640     0.48510050     0.36509267
O       0.25950813     0.54863190     2.55088930    -1.70966751     0.48506862    -0.36488415
O       6.88305868     4.51924867     8.54596262     1.70966751    -0.48506862     0.36488415
O       3.31175335     0.54867915     8.09935092     1.70933224     0.48461662    -0.36421850
O       3.83081346     4.51920148     2.99750118    -1.70933224    -0.48461662     0.36421850
