# total energy = -4984.55731425 eV

CRYSTAL
PRIMVEC
        3.19573596     0.00000000     0.00000000
        2.35634813     4.41815201     0.00000000
       -0.00001516    -0.00006826     5.18158423
PRIMCOORD
6 1
Ti      2.77603421     2.20904177     2.59079222     0.00000000     0.00000000     0.00000000
Ti      0.00000000     0.00000000     0.00000000     0.00000000     0.00000000     0.00000000
O       2.05708245     0.86101941     1.00981451    -1.68948100     1.17679461     0.90791677
O       3.49498601     3.55706423     4.17177000     1.68948100    -1.17679461    -0.90791677
O       0.71894534     1.34799492     3.60060774     1.68898658    -1.17600811     0.90756659
O       1.63738728     3.07008880     1.58097671    -1.68898658     1.17600811    -0.90756659
