# total energy = -19958.49549051 eV

CRYSTAL
PRIMVEC
        7.60600008     0.00000000     0.00000000
        0.00000000     7.60600008     0.00000000
       -1.89786986    -1.89786986     4.85670466
PRIMCOORD
24 1
Ti      3.88899500     6.62589000     1.08376803     0.14646063     0.33798706    -0.32336185
Ti      3.82172900     2.68349699     1.24991402    -1.27500359    -0.15873714    -1.65831485
Ti      0.05334398     6.76269200     1.24685500    -0.42621321    -0.26767534     0.05777374
Ti     -0.13713099     2.82637898     1.32582698     1.02285258     0.76746044    -0.14680619
Ti      5.59212123     2.92394021     3.76026681     0.92755178    -0.73307269     1.26530821
Ti      5.63527024    -0.84878475     3.65334184     1.01310244     0.84327304     0.45869012
Ti      1.94670721     2.83897922     3.69340383    -1.61607623    -2.45693861    -0.45169980
Ti      2.01986321    -0.96586876     3.50113379    -0.98454801     1.18008691     1.24119614
O       3.81752199     4.67104399     0.83975900    -0.19300919     0.71820760    -0.15297221
O       4.21002403     0.84236398     0.59706699    -1.13439196    -0.76078405     0.22782811
O       7.18196199     4.76838000     0.80858802     2.02018695     0.49955113     0.41008134
O      -0.22721601     1.05293599     0.82959901     0.73968763    -1.47122537    -1.29727501
O       5.76746723     4.79835223     4.15287082    -0.11868448     1.22746182    -0.83312618
O       5.45251221     1.05135724     4.12991781     1.09719348    -2.20651898    -0.33166138
O       1.87197024     4.62655521     3.82851279     0.20556260     1.64523101     0.61256581
O       2.05864524     0.81570620     4.15506881    -0.67242729     0.93621768    -0.57757334
O       3.73357125     2.79409821     3.28406682     1.53101588     0.49607423    -1.05545752
O       3.87045321    -0.74635080     3.00460783     1.02950994    -1.11867532     0.24774182
O      -0.13059777     2.67002520     3.55674079    -0.00071939     0.69791644    -2.26288710
O       0.15928521    -0.82987577     3.35654780    -1.91762998    -0.33578928    -1.58726393
O       5.80418198     6.75844699     1.41359399    -0.69969385    -0.61511198     2.21204711
O       5.65897500     2.76497902     1.32949302    -0.03570621     0.49596444     2.96684615
O       1.97879901     6.95873799     1.46282901    -0.19002208    -1.06793303     0.41383489
O       1.88804998     2.41558302     1.65704802    -0.46899819     1.34702947     0.56448642
