# total energy = -19908.81669310 eV

CRYSTAL
PRIMVEC
        6.90186617     0.00000000     0.00000000
        0.00003435     6.64608468     0.00000000
        0.00000000     0.00000000    11.79407788
PRIMCOORD
24 1
Ti      2.50161492     3.93846357     4.37551888     0.22390589    -0.94691811     0.77915948
Ti      4.40028560     2.70762098     7.41855941    -0.22390589     0.94691811    -0.77915948
Ti      5.95242772     2.70762327     1.52147315     0.22357550     0.94688031    -0.77943253
Ti      0.94947287     3.93846162    10.27260533    -0.22357550    -0.94688031     0.77943253
Ti      2.50159781     0.61542136     1.52152046     0.22390589    -0.94691811    -0.77915948
Ti      4.40030277     6.03066339    10.27255802    -0.22390589     0.94691811     0.77915948
Ti      0.94945569     0.61541894     7.41851216    -0.22357550    -0.94688031    -0.77943253
Ti      5.95244482     6.03066588     4.37556619     0.22357550     0.94688031     0.77943253
O       2.18449633     2.34019932     6.01842782     1.15510529     1.38097396    -0.46933783
O       4.71740425     4.30588523     5.77565046    -1.15510529    -1.38097396     0.46933783
O       1.26650138     2.34022619     0.12142665    -1.15451496     1.38070759    -0.46973018
O       5.63539927     4.30585842    11.67265137     1.15451496    -1.38070759     0.46973018
O       4.71738707     0.98284282     0.12138841    -1.15510529    -1.38097396    -0.46933783
O       2.18451351     5.66324172    11.67268961     1.15510529     1.38097396     0.46933783
O       5.63538209     0.98281601     6.01846613     1.15451496    -1.38070759    -0.46973018
O       1.26651836     5.66326860     5.77561223    -1.15451496     1.38070759     0.46973018
O       0.25078177     4.04252547     3.18587475    -0.18209176    -0.11522917     0.11058524
O       6.65111881     2.60355914     8.60820353     0.18209176     0.11522917    -0.11058524
O       3.70172097     2.60349728     2.71120189    -0.18207479     0.11542072    -0.11082410
O       3.20017955     4.04258733     9.08287626     0.18207479    -0.11542072     0.11082410
O       0.25076460     0.71948306     2.71116419    -0.18209176    -0.11522917    -0.11058524
O       6.65113592     5.92660155     9.08291389     0.18209176     0.11522917     0.11058524
O       3.20016244     0.71954492     8.60824117     0.18207479    -0.11542072    -0.11082410
O       3.70173814     5.92653962     3.18583712    -0.18207479     0.11542072     0.11082410
