# total energy = -19959.55331775 eV

CRYSTAL
PRIMVEC
        7.60600008     0.00000000     0.00000000
        0.00000000     7.60600008     0.00000000
       -1.89786986    -1.89786986     4.85670466
PRIMCOORD
24 1
Ti      3.94385798     6.60753898     1.24093298    -1.89211203    -0.20132517    -0.97465132
Ti      3.72242497     2.75430398     1.21053900    -0.43278958     0.28334956    -0.45736934
Ti      0.12000602     6.83558299     1.11796600     1.34694591    -0.06175818     2.40162876
Ti     -0.09996799     2.90851703     1.25916901     0.25856051     0.29958197    -0.79896598
Ti      5.62009523     3.06605722     3.70813179     1.21417461    -3.88800950    -0.59768606
Ti      5.73555224    -0.99626978     3.55413380     1.08361703     4.86463209     0.17134455
Ti      1.91630222     2.71298021     3.67800584    -1.21990020     0.03756923    -0.23991384
Ti      1.87463322    -1.09644378     3.67154680    -0.74844147     0.17458903    -1.11359893
O       3.56587498     4.68702001     0.86978600     1.42052011     0.41888531    -1.06874653
O       3.57910398     0.88224399     0.86108997     0.91250748    -1.62660028    -0.79634422
O      -0.01632501     4.88871798     0.71777899    -0.44071707    -0.21470853     0.73977659
O       0.21520400     1.14627201     0.87723099    -0.69467145    -2.89417749    -1.18929660
O       5.94330225     4.84413421     4.01554980    -0.21158876     0.96797648    -0.12363643
O       5.77230423     0.95737621     4.09485384    -0.89205023    -0.48577490     0.12224263
O       1.71407523     4.59119024     4.00493683     0.94877521     1.07192236     0.63087105
O       1.84174623     0.77268425     4.07938784     0.57491662     1.28428373    -0.03848506
O       3.81501120     2.78309720     3.35565979    -1.27484238     0.21950981    -0.27266713
O       3.84009420    -1.10684476     3.13584279     1.15065265    -0.17920981     0.91582291
O      -0.12926779     2.74175422     3.28736782     0.76165488     0.48610966    -1.34239866
O       0.04995624    -0.84126477     3.08617982    -0.42998811    -0.76693490     0.45923622
O       5.84190602    -0.58792497     1.51225999    -1.62504733    -1.26119547     0.41767998
O       5.52366601     2.89987403     1.48709401     2.60070164     0.24305573     0.98823369
O       1.97997801     6.55959599     1.66991200    -0.89058084     0.42656520    -0.03950836
O       1.91705598     2.75133799     1.57303102    -1.52029721     0.80166384     2.20643105
