# total energy = -4987.49799989 eV

CRYSTAL
PRIMVEC
        2.74430172     0.00000000     0.00000000
        0.00000000     4.29990937     0.00000000
        0.00000000    -0.00005580     4.29990937
PRIMCOORD
6 1
Ti      1.37215081     2.14992674     2.14995464     0.00000000     0.00000000     0.00000000
Ti      0.00000000     0.00000000     0.00000000     0.00000000     0.00000000     0.00000000
O       1.37215081     0.83797812     0.83798899     0.00000000     1.15148518     1.15148518
O       1.37215081     3.46187536     3.46192028     0.00000000    -1.15148518    -1.15148518
O       0.00000000     1.31192600     2.98794450     0.00000000    -1.15155434     1.15155434
O       0.00000000     2.98792748     1.31196477     0.00000000     1.15155434    -1.15155434
