# total energy = -19947.20223703 eV

CRYSTAL
PRIMVEC
        5.33104039     0.00000000     0.00000000
        2.18227079     5.23737937     0.00000000
        0.00000000     0.00000000     9.74593092
PRIMCOORD
24 1
Ti      3.22545743     3.10366627     3.61567086     2.10350615    -3.39629510     1.15273987
Ti      4.28785384     2.13371326     6.13026017    -2.10350615     3.39629510    -1.15273987
Ti      5.48673792     2.13371504     1.25725569    -4.52120714     0.09600426     1.26325159
Ti      2.02657339     3.10366469     8.48867539     4.52120714    -0.09600426    -1.26325159
Ti      2.13432214     0.48497656     1.25729476     2.10350615    -3.39629510    -1.15273987
Ti      5.37898916     4.75240312     8.48863632    -2.10350615     3.39629510     1.15273987
Ti      0.93543797     0.48497463     6.13022105     4.52120714    -0.09600426     1.26325159
Ti      6.57787333     4.75240505     3.61570993    -4.52120714     0.09600426    -1.26325159
O       2.45572257     1.84417037     4.97327397     0.59587986     1.42016324    -1.10180990
O       5.05758864     3.39320917     4.77265706    -0.59587986    -1.42016324     1.10180990
O       1.74666690     1.84419153     0.10033982     0.81250181    -0.75836156     0.37215575
O       5.76664444     3.39318809     9.64559088    -0.81250181     0.75836156    -0.37215575
O       3.96645333     0.77451935     0.10030818    -0.59587986    -1.42016324    -1.10180990
O       3.54685794     4.46286017     9.64562252     0.59587986     1.42016324     1.10180990
O       4.67550906     0.77449823     4.97330555    -0.81250181     0.75836156     0.37215575
O       2.83780211     4.46288136     4.77262542     0.81250181    -0.75836156    -0.37215575
O       1.52106985     3.18567118     2.63261910     0.35257705     0.31877834     0.28569338
O       5.99224136     2.05170835     7.11331193    -0.35257705    -0.31877834    -0.28569338
O       3.71408948     2.05165961     2.24037741     1.68851786    -0.10966325    -0.98862424
O       3.79922174     3.18571992     7.50555345    -1.68851786     0.10966325     0.98862424
O       0.42993453     0.56698132     2.24034625     0.35257705     0.31877834    -0.28569338
O       7.08337674     4.67039821     7.50558456    -0.35257705    -0.31877834     0.28569338
O       2.70808643     0.56703011     7.11334298    -1.68851786     0.10966325    -0.98862424
O       4.80522479     4.67034942     2.63258799     1.68851786    -0.10966325     0.98862424
