# total energy = -4989.14114630 eV

CRYSTAL
PRIMVEC
        2.93688567     0.00000000     0.00000000
        0.91121963     4.51053764     0.00000000
       -0.00000607    -0.00006025     4.62507304
PRIMCOORD
6 1
Ti      1.92404957     2.25523870     2.31253663     0.00000000     0.00000000     0.00000000
Ti      0.00000000     0.00000000     0.00000000     0.00000000     0.00000000     0.00000000
O       1.64602489     0.87902565     0.90135867    -1.50299702     0.66791397     0.65844897
O       2.20207424     3.63145174     3.72371458     1.50299702    -0.66791397    -0.65844897
O       0.27802219     1.37618864     3.21389613     1.50311812    -0.66782578     0.65841168
O       0.63319137     3.13428864     1.41117712    -1.50311812     0.66782578    -0.65841168
