# total energy = -19961.10715921 eV

CRYSTAL
PRIMVEC
        7.60600008     0.00000000     0.00000000
        0.00000000     7.60600008     0.00000000
       -1.89786986    -1.89786986     4.85670466
PRIMCOORD
24 1
Ti      3.77387402     6.52744398     1.25554600    -0.40650107     1.45138159    -0.58920527
Ti      3.81603997     2.85255299     1.24699100    -1.22701342    -1.59140238    -0.73630971
Ti      0.02297402     6.73039102     1.15395000     0.33756232    -0.26616584     1.51242577
Ti     -0.01675799     2.91306398     1.20247301     0.85172889     0.31154351    -0.52031691
Ti      5.72804120     2.91504623     3.60355679     0.41341426    -0.38611993     0.89282516
Ti      5.72505923    -0.95881679     3.59214582     0.97823030     0.45521733     0.28912066
Ti      1.90553124     2.79971924     3.62945382    -0.81436072    -0.17021558    -0.23031385
Ti      1.92039022    -1.05198876     3.63010180    -1.09176588     0.34282999     1.18390448
O       3.56914000     4.63329301     0.82451901     0.85324147     1.24202686    -0.68828611
O       3.65191099     0.85816997     0.95211698     0.90866985     0.42930368    -0.50834765
O       0.06626998     4.89410199     0.71766997    -0.46816798    -0.87156393     0.41978880
O       0.02504501     1.00890902     0.68007003    -0.45308151     0.20821881     0.94568937
O       5.97587925     4.81899724     4.10091583    -0.49105492    -0.12892904    -1.27541085
O       5.71793921     1.06680525     4.12627681    -0.29596879    -0.51112933    -1.50418538
O       1.68074923     4.66657223     4.10511982     0.81941062    -0.22454789     0.37639087
O       1.83170022     0.82282522     4.06031079     0.84670315     1.04272696     0.57654413
O       3.78043222     3.00340523     3.26237081     0.04534991    -0.47757642     0.00549034
O       3.79003022    -1.12606479     3.21644183     1.02851518    -0.16074029     0.68381882
O       0.06142224     2.74014124     3.10599280    -1.75575763    -0.05301360     1.10678910
O       0.07130325    -0.98372177     3.16385283    -1.46501307     0.39547284     0.17714856
O       5.72672900     6.63697499     1.67654000    -0.33178684     0.10895645    -1.01420004
O       5.64912399     3.05161698     1.65827402     0.53193779    -0.28041464    -0.44365867
O       1.92222498     6.67836602     1.74075598    -0.18451786    -0.20724436    -1.04361399
O       1.80738399     2.99891399     1.61433601     1.37022546    -0.65861506     0.38391264
