# total energy = -19941.05774787 eV

CRYSTAL
PRIMVEC
        5.64998726     0.00000000     0.00000000
        2.57561869     5.43377428     0.00000000
        0.00000000     0.00000000    10.39166181
PRIMCOORD
24 1
Ti      3.57415783     3.22004958     3.85523239     1.48604419    -3.44119609     0.94639514
Ti      4.65144794     2.21372463     6.53642948    -1.48604419     3.44119609    -0.94639514
Ti      5.92205925     2.21372647     1.34055704    -3.43647271    -0.44967583     0.94562227
Ti      2.30354663     3.22004795     9.05110500     3.43647271     0.44967583    -0.94562227
Ti      2.28634862     0.50316252     1.34059868     1.48604419    -3.44119609    -0.94639514
Ti      5.93925719     4.93061185     9.05106335    -1.48604419     3.44119609     0.94639514
Ti      1.01573727     0.50316052     6.53638783     3.43647271     0.44967583     0.94562227
Ti      7.20986859     4.93061384     3.85527409    -3.43647271    -0.44967583    -0.94562227
O       2.69517571     1.91332427     5.30278549     1.28441100     1.90482691    -1.13174475
O       5.53043006     3.52044993     5.08887644    -1.28441100    -1.90482691     1.13174475
O       1.94369952     1.91334622     0.10698800     0.69009951    -1.00536110     1.01880412
O       6.28190633     3.52042808    10.28467364    -0.69009951     1.00536110    -1.01880412
O       4.24262082     0.80356277     0.10695424    -1.28441100    -1.90482691    -1.13174475
O       3.98298496     4.63021149    10.28470735     1.28441100     1.90482691     1.13174475
O       4.99409708     0.80354086     5.30281919    -0.69009951     1.00536110     1.01880412
O       3.23150865     4.63023341     5.08884268     0.69009951    -1.00536110    -1.01880412
O       1.77191436     3.30512958     2.80704711     0.58978840     1.68169929     1.60029300
O       6.45369136     2.12864464     7.58461481    -0.58978840    -1.68169929    -1.60029300
O       4.03923925     2.12859408     2.38881688     1.38200883     0.98616884     0.24527048
O       4.18636652     3.30518013     8.00284482    -1.38200883    -0.98616884    -0.24527048
O       0.48410511     0.58824236     2.38878368     0.58978840     1.68169929    -1.60029300
O       7.74150061     4.84553186     8.00287802    -0.58978840    -1.68169929     1.60029300
O       2.89855727     0.58829291     7.58464789    -1.38200883    -0.98616884     0.24527048
O       5.32704850     4.84548130     2.80701392     1.38200883     0.98616884    -0.24527048
