# total energy = -19072.88136516 eV

CRYSTAL
PRIMVEC
        7.60600008     0.00000000     0.00000000
        0.00000000     7.60600008     0.00000000
       -1.89786986    -1.89786986     4.85670466
PRIMCOORD
22 1
Ti      3.65037098     6.53590102     1.36612399     0.71925352    -0.48821359    -0.63298835
Ti      3.69301002     2.73716298     1.17237399    -0.80710661     0.34582404    -0.47076865
Ti     -0.03411600     6.67060600     1.13094201     0.53735022     1.52264385     0.05404847
Ti     -0.16695098     2.88095398     1.07639902     0.06495689    -0.55218498    -0.29284902
Ti      5.59291325     3.02190124     3.48852879     0.80364539    -0.57032077     0.34488791
Ti     -1.28879278    -0.66959380     3.70899483    -1.65927284     0.04800791    -0.03010686
Ti      1.79951222     2.69260424     3.65056879     0.64232377    -0.70600256     0.40846694
Ti      2.08467922    -1.24292877     3.90151782    -1.19048728     2.53958752    -4.68003093
O       3.61542899     4.59763901     0.72885900    -0.14825783     0.27240180     0.14976604
O       3.88219401     0.79706498     0.78070499    -0.29230137     1.10300444     4.88619002
O      -0.02673202     4.95597498     0.57270599    -0.53755334    -0.16417991     0.69942979
O       7.01690600     0.99881899     0.46766299     0.33296107     2.10768831     1.85761321
O      -1.22539877     5.22189623     4.17902779     0.57163641    -2.59372752    -0.55482524
O       5.51848420     1.21236323     3.91686380     1.04468023    -0.81104374     0.06757530
O       1.90661023     4.65911723     4.32087179    -0.05073945    -3.17888125    -1.55055730
O       2.04882821     0.73946525     3.99169983    -0.25091148     1.28397854     0.16031657
O       3.67936323     2.83409523     3.11214882     0.10177150     0.66144662     0.10807893
O       0.09105722     2.87693223     3.01732682    -1.47910709    -0.02807671     0.68551961
O       5.53918303     6.76627199     2.04479900     0.97521156    -0.85351735    -0.33079311
O       5.65571997     3.41268398     1.65934502     0.03955695    -1.07527534    -0.44655553
O       1.86066701     6.32816302     1.89621698     0.20806609     1.01903732     0.03419363
O       1.78502499     2.57871498     1.34640801     0.37432345     0.11780311    -0.46661169
