# total energy = -19074.31321345 eV

CRYSTAL
PRIMVEC
        5.17600016     0.00000000     0.00000000
        0.00000000     5.50899976     0.00000000
        0.00000000     0.00000000     9.26300011
PRIMCOORD
22 1
Ti      1.97816299     3.41940803     3.34989700    -0.45038596     1.15459056    -0.92754355
Ti      3.51002900     2.34235902     6.04060800    -0.67051336    -0.85323221    -1.63372506
Ti      4.31174301     2.28922100     1.27402000     1.00521275     0.41063489    -1.54486231
Ti      0.76021598     3.06987100     8.12611401    -0.54445366     2.37149645     0.69974604
Ti      1.80219901     0.47357601     1.23211303     0.14383862    -0.16650239    -1.27397078
Ti      3.15996898     5.01011299     7.95339003     0.97942663     0.83445698     1.68367339
Ti      0.56127698     0.22118799     5.96072202     0.55537623     1.23375228    -1.03485244
Ti      4.53230699     4.94451898     3.35882998     0.15662858     0.61521842     0.50667438
O       3.43047000     3.57877902     4.48195297     0.83883480    -1.01002123     1.61134412
O       0.88570000     1.99359602     0.32419102     0.10100145    -0.44037331    -1.33389447
O       4.23608299     3.73949501     9.18253400     0.50361116    -1.47916005    -0.57430213
O       3.38219602     0.78757402     0.18341903     0.51158724     0.97462818    -0.87097746
O       1.57786702     4.65932102     8.99791898    -0.74480772     0.49707439     0.70838341
O       4.40711101     0.77993001     4.75868701    -1.30466102     0.23930449     0.29546100
O       1.16546998     5.01102000     4.26368900    -0.63260243    -1.59357573     1.18140769
O       0.26957300     3.44721200     2.44196901    -0.82515550    -0.37953713     0.59459354
O       0.08653202     2.39566500     6.41875700     1.39521350    -1.04388473     1.12692727
O       2.77230299     2.03038400     2.24876502    -0.99430355    -0.37024028     0.89509982
O       2.49728598     3.44689302     7.16677302    -0.96919415    -1.18220678    -0.80480701
O       0.07441402     0.68027101     2.13233201    -0.08250725    -0.12051151     0.10169694
O       2.29783600     0.72581999     6.63514599     0.33365835     0.36073002     0.17691485
O       2.78220099     4.73080302     2.28683499     0.69419605    -0.05264104     0.41701226
