# total energy = -19960.89223381 eV

CRYSTAL
PRIMVEC
        5.93400000     0.00000000     0.00000000
        0.00000000     9.29699974     0.00000000
        0.00000000     0.00000000     4.64899994
PRIMCOORD
24 1
Ti      4.40729601     6.84459001     2.28228401     0.64513810     0.52569695     0.54901352
Ti      4.48574998     2.36084598     2.33358102    -0.23106024    -1.69175128     0.31705545
Ti      1.48773898     7.00107100     2.29689401    -0.53005240    -0.09883838     0.06663453
Ti      1.49657798     2.43670201     2.32259202    -0.03076609    -1.65213571     0.30485839
Ti      2.94424400     4.64778400     4.64191299    -0.38200025    -0.81700407     0.14926339
Ti      2.95940001     9.22307601     4.57874600    -0.07475151     1.69673383     0.24627526
Ti      5.92438199     4.67231301     0.03748300     0.61642298    -0.47850202    -0.44606677
Ti      0.00938702     9.22257599     0.08095401    -0.18149630     1.75062700     0.16829393
O       4.49921701     5.57905002     0.89041798    -0.64607938     0.67486495     0.38087642
O       4.49794302     0.99839501     0.91143801    -0.15166198    -0.61754758    -0.27817778
O       1.47881001     5.58148202     0.88741898     0.06551919     0.00276831    -0.07806695
O       1.52107698     0.87155101     0.83979202    -0.12978548     0.37087894     0.51398248
O       4.48476899     8.44986100     3.77778401    -0.21700916    -1.07967912    -0.79095467
O       4.44360202     3.76669002     3.86938099     0.11371736    -0.27630113    -0.83219390
O       1.47460300     8.42308299     3.73078502     0.25691244    -0.79712455    -0.48510538
O       1.50766398     3.67879198     3.79774298    -0.33492308     0.84103695     0.48418570
O       2.88264301     6.00545301     3.27185399     1.12239802     0.84209882    -0.79282721
O       2.91026400     1.46936499     3.17670300     0.41939670    -0.47773737     0.35913362
O       0.10822199     6.04212002     3.11086700    -1.45212824    -0.62673620     1.31642150
O       0.05968199     1.43595702     3.17356900    -0.71063441     0.29915156     0.01977076
O       2.97842298     7.82964298     1.40249699     0.70247964     0.04479172     0.06430537
O       2.93562402     3.30300200     1.47815700     0.46276763     0.64603953    -0.54879163
O       5.91940699     7.80992298     1.43183399    -0.35349391     0.73362316    -0.38955081
O       5.82046000     3.36125801     1.47979502     1.02109086     0.18504596    -0.29833549
