# total energy = -4988.17391532 eV

CRYSTAL
PRIMVEC
        3.85907124     0.00000000     0.00000000
        1.48425131     3.56222247     0.00000000
       -2.67169710    -1.78113512     5.03061965
PRIMCOORD
6 1
Ti      1.11308416     2.67180399     1.25765465     0.00054739    -0.00054739    -0.00000000
Ti      1.55854140    -0.89071661     3.77296432    -0.00054739     0.00054739     0.00000000
O       0.37110295     0.89055095     0.81944671    -0.00030108    -0.00031727    -1.71395045
O       2.30052244     0.89053636     4.21117231     0.00030108     0.00031727     1.71395045
O      -0.37106962    -0.89052873     3.33475643    -0.00031727    -0.00030108    -1.71395045
O       3.04269494     2.67161600     1.69586264     0.00031727     0.00030108     1.71395045
