# total energy = -19960.72643872 eV

CRYSTAL
PRIMVEC
        7.60600008     0.00000000     0.00000000
        0.00000000     7.60600008     0.00000000
       -1.89786986    -1.89786986     4.85670466
PRIMCOORD
24 1
Ti      3.87243799     6.57986100     1.20356402    -0.66883777     0.18172332    -0.03470785
Ti      3.76100702     2.81758702     1.33339898     0.03081237    -0.76861461    -1.75285871
Ti      0.10333699     6.78357799     1.15288000     0.11107761     0.92348866     0.61705316
Ti      0.00227901     2.95566402     1.21120401    -0.62664904    -0.27203593     0.11297200
Ti      5.64489221     2.99009224     3.67844780     1.29230840    -1.51502824    -0.49585620
Ti      5.73792120    -0.92268176     3.53458679     0.68743971     1.31031668     1.17207818
Ti      1.86038025     2.76830924     3.64170983    -1.80886508    -1.85762889     0.34360158
Ti      1.87465623    -1.09298375     3.61284184    -0.50217957     1.49019986     0.32083908
O       3.90125699     4.60365199     0.84473199    -0.20739580     1.76595566    -0.59414848
O       3.83250802     0.99075502     0.73339702     0.18622276    -2.15502079     0.60027748
O      -0.02685903     4.93750098     0.96798198    -0.47544240    -2.17949462    -1.84826827
O       0.10312199     1.08540398     0.79289601    -0.74930510    -1.76034834    -0.58989150
O       5.90546825     4.84041823     3.98250083    -0.80459747    -0.29919784     0.47527065
O       5.63018521     0.99856821     4.12087682    -0.32798033     0.95231562    -0.65724235
O       1.66937922     4.66727725     4.08329380     0.67235375     0.11510602     0.61600595
O       1.84228720     0.85273024     4.00114279     0.35101768     1.02974262     0.04220545
O       3.66758522     2.87207825     3.26683379     1.58250481     0.44125340     0.05660389
O       3.75315721    -1.15318576     3.15571583     1.03588242     0.34878879    -0.40399476
O      -0.04486677     2.82597024     3.21298080    -0.33532083     0.08445537     0.54374533
O       0.01945520    -0.86033277     3.24295382    -0.37571673     0.07695006    -0.49004859
O       5.81240401     6.68788999     1.59720601    -2.28339191     0.27635795    -0.06736987
O       5.66195702     2.85258400     1.73178600    -0.40405338    -0.01362557     0.30893101
O       1.85423100     6.43396498     1.53749502     2.01900476     0.78990129     0.74296399
O       1.80059301     2.67921399     1.57095898     1.60111189     1.03443900     0.98183858
