# total energy = -19921.73133761 eV

CRYSTAL
PRIMVEC
        6.88245695     0.00000000     0.00000000
        0.00002304     3.52685928     0.00000000
        0.00000000     0.00000000    10.39829878
PRIMCOORD
24 1
Ti      2.49457338     2.09001361     3.85769468    -0.47222724     1.03183962    -0.21644223
Ti      4.38790676     1.43684583     6.54060420     0.47222724    -1.03183962     0.21644223
Ti      5.93568404     1.43684708     1.34141322    -0.47184543    -1.03135625     0.21772598
Ti      0.94679615     2.09001251     9.05688583     0.47184543     1.03135625    -0.21772598
Ti      2.49456191     0.32658402     1.34145491    -0.47222724     1.03183962     0.21644223
Ti      4.38791828     3.20027552     9.05684413     0.47222724    -1.03183962    -0.21644223
Ti      0.94678463     0.32658267     6.54056250     0.47184543     1.03135625     0.21772598
Ti      5.93569551     3.20027687     3.85773638    -0.47184543    -1.03135625    -0.21772598
O       2.17834927     1.24186716     5.30617228     4.19404982    -1.00172685     2.04157391
O       4.70413092     2.28499227     5.09212660    -4.19404982     1.00172685    -2.04157391
O       1.26293585     1.24188135     0.10705631    -4.19305584    -1.00167491     2.04218043
O       5.61954440     2.28497808    10.29124227     4.19305584     1.00167491    -2.04218043
O       4.70411940     0.52156264     0.10702258    -4.19404982     1.00172685     2.04157391
O       2.17836074     3.00529680    10.29127604     4.19404982    -1.00172685    -2.04157391
O       5.61953293     0.52154844     5.30620601     4.19305584     1.00167491     2.04218043
O       1.26294716     3.00531104     5.09209288    -4.19305584    -1.00167491    -2.04218043
O       0.25006969     2.14523577     2.80883991     0.89446450    -0.26739431     0.94063330
O       6.63241045     1.38162371     7.58945898    -0.89446450     0.26739431    -0.94063330
O       3.69130678     1.38159079     2.39034258     0.89558807     0.26797024    -0.94212222
O       3.19117336     2.14526869     8.00795615    -0.89558807    -0.26797024     0.94212222
O       0.25005822     0.38180608     2.39030938     0.89446450    -0.26739431    -0.94063330
O       6.63242197     3.14505335     8.00798935    -0.89446450     0.26739431     0.94063330
O       3.19116190     0.38183900     7.58949213    -0.89558807    -0.26797024    -0.94212222
O       3.69131830     3.14502043     2.80880670     0.89558807     0.26797024     0.94212222
