# total energy = -19893.32000520 eV

CRYSTAL
PRIMVEC
        6.93556473     0.00000000     0.00000000
        3.47369459     6.51310684     0.00000000
        0.00000000     0.00000000    12.84532995
PRIMCOORD
24 1
Ti      4.57231687     3.85966109     4.76552582    -0.30263130    -1.84689453     0.18476366
Ti      5.83694264     2.65344592     8.07980427     0.30263130     1.84689453    -0.18476366
Ti      7.39666442     2.65344824     1.65708791    -0.05060241    -1.50946077     0.50698702
Ti      3.01259530     3.85965906    11.18824225     0.05060241     1.50946077    -0.50698702
Ti      2.83546984     0.60310788     1.65713943    -0.30263130    -1.84689453    -0.18476366
Ti      7.57378980     5.90999937    11.18819079     0.30263130     1.84689453     0.18476366
Ti      1.27574794     0.60310538     8.07975275     0.05060241     1.50946077     0.50698702
Ti      9.13351168     5.91000181     4.76557727    -0.05060241    -1.50946077    -0.50698702
O       3.41829701     2.29337569     6.55487358     1.68549450     1.83368394    -0.81864752
O       6.99096258     4.21973137     6.29045651    -1.68549450    -1.83368394     0.81864752
O       2.49583387     2.29340190     0.13224988     0.18764201    -1.21863419     1.84156464
O       7.91342580     4.21970520    12.71307980    -0.18764201     1.21863419    -1.84156464
O       5.25411542     0.96317791     0.13220819    -1.68549450    -1.83368394    -0.81864752
O       5.15514416     5.54992907    12.71312149     1.68549450     1.83368394     0.81864752
O       6.17657864     0.96315175     6.55491520    -0.18764201     1.21863419     1.84156464
O       4.23268089     5.54995532     6.29041482     0.18764201    -1.21863419    -1.84156464
O       2.36488305     3.96164074     3.46984408     0.60684511     3.21574908     2.98254171
O       8.04437654     2.55146631     9.37548594    -0.60684511    -3.21574908    -2.98254171
O       5.08054567     2.55140548     2.95286176     0.36086526     2.18455224     2.16807583
O       5.32871392     3.96170157     9.89246806    -0.36086526    -2.18455224    -2.16807583
O       0.62803588     0.70508729     2.95282076     0.60684511     3.21574908    -2.98254171
O       9.78122369     5.80801970     9.89250906    -0.60684511    -3.21574908     2.98254171
O       3.59186676     0.70514812     9.37552687    -0.36086526    -2.18455224     2.16807583
O       6.81739281     5.80795887     3.46980308     0.36086526     2.18455224    -2.16807583
