# total energy = -19958.79441409 eV

CRYSTAL
PRIMVEC
        5.93400000     0.00000000     0.00000000
        0.00000000     9.29699974     0.00000000
        0.00000000     0.00000000     4.64899994
PRIMCOORD
24 1
Ti      4.44197099     7.01566698     2.38499800     1.09784809     0.33369898    -0.18818837
Ti      4.46229298     2.16933901     2.38174801    -1.48757116    -1.25770803     0.97941480
Ti      1.43131302     6.92905601     2.32425798    -0.98898085     0.99265059     0.66753782
Ti      1.39629699     2.48792599     2.00744199     0.03970710    -1.29333556     1.38286269
Ti      2.90704501     4.53874602     0.08822702     0.54539623     1.32137217    -0.95787589
Ti      3.02044098     9.25225998     0.00684200     0.53808144    -1.30608104    -0.49598115
Ti      5.83337600     4.58825601     0.11105203    -0.29354090     1.66104407    -1.36294923
Ti      0.06796001     0.17521202     4.55104199     0.20174168    -2.18423239     0.20663501
O       4.42169397     5.48845001     0.90986101    -0.72712264     0.46257480     0.60495252
O       4.52105198     0.90791100     0.79880899    -0.39384044     1.13206665     1.39834254
O       1.41132102     5.59334897     1.01907198     0.89867288    -1.36586589    -1.19617251
O       1.77495702     1.09361501     0.79880698    -2.23708375    -0.29643982     0.43003979
O       4.67550903     8.40386899     3.74076398    -1.24477743     0.46959571     0.32065782
O       4.46508000     3.77250700     3.74459501    -1.01360638    -0.62341176     0.01062869
O       1.27266801     8.27760200     3.84223298     2.13792938     0.88999566     0.13236173
O       1.38169699     3.68238102     3.99505900     1.17588932    -0.34801180    -1.40664026
O       3.00087899     6.25301498     3.31119302    -0.75741102    -1.18636657     0.28506911
O       3.15347799     1.31245197     3.27996400    -0.72959939     0.49401760    -1.03560808
O       5.93383897     5.95509301     3.12496100     0.16579585     0.15365869     0.82240288
O       0.21956300     1.46659099     3.10116501    -0.73233427    -0.44021468     0.44218003
O       3.11019600     7.99110999     1.38421301    -0.92882113    -0.63855428     0.37337368
O       2.97815897     3.11306202     1.36912897     1.40035108     1.47973572     0.62312842
O       5.89251801     7.98244403     1.53244101     1.11389949    -0.31610105    -0.37793919
O       5.70479000     3.17902698     1.48671502     2.21937656     1.86591273    -1.65823308
