# total energy = -4984.35028546 eV

CRYSTAL
PRIMVEC
        3.31806078     0.00000000     0.00000000
        2.44654327     4.58726788     0.00000000
       -0.00001574    -0.00007088     5.37992238
PRIMCOORD
6 1
Ti      2.88229390     2.29359839     2.68996130     0.00000000     0.00000000     0.00000000
Ti      0.00000000     0.00000000     0.00000000     0.00000000     0.00000000     0.00000000
O       2.13582244     0.89397709     1.04846769    -0.07408019     0.56598692    -0.07666775
O       3.62876537     3.69321980     4.33145497     0.07408019    -0.56598692     0.07666775
O       0.74646478     1.39959281     3.73843004     0.07292448    -0.56502301    -0.07641296
O       1.70006239     3.18760416     1.64149256    -0.07292448     0.56502301     0.07641296
