# total energy = -19928.53711036 eV

CRYSTAL
PRIMVEC
        4.78151575     0.00000000     0.00000000
        1.72823928     4.78653290     0.00000000
        0.00000000     0.00000000     8.69606473
PRIMCOORD
24 1
Ti      2.75722255     2.83649489     3.22617801     4.37677974    -2.93853700     1.09175149
Ti      3.75253266     1.95003788     5.46988682    -4.37677974     2.93853700    -1.09175149
Ti      4.82783552     1.95003951     1.12181969    -8.52636643     1.69816722     2.82531432
Ti      1.68191972     2.83649340     7.57424524     8.52636643    -1.69816722    -2.82531432
Ti      1.89310303     0.44322856     1.12185455     4.37674168    -2.93861362    -1.09940952
Ti      4.61665220     4.34330430     7.57421037    -4.37674168     2.93861362     1.09940952
Ti      0.81780010     0.44322680     5.46985196     8.52617797    -1.69797284     2.83872494
Ti      5.69195514     4.34330611     3.22621287    -8.52617797     1.69797284    -2.83872494
O       2.12192240     1.68541955     4.43753527    -2.25499509    -0.80415883    -1.17058642
O       4.38783281     3.10111322     4.25852956     2.25499509     0.80415883     1.17058642
O       1.48595535     1.68543886     0.08953088     2.12899813    -0.66198629    -1.64646051
O       5.02379992     3.10109395     8.60653370    -2.12899813     0.66198629     1.64646051
O       3.52371327     0.70784680     0.08950267     2.25506991     0.80372895    -1.17074763
O       2.98604194     4.07868597     8.60656192    -2.25506991    -0.80372895     1.17074763
O       4.15968037     0.70782749     4.43756349    -2.12915240     0.66160885    -1.64712617
O       2.35007479     4.07870529     4.25850134     2.12915240    -0.66160885     1.64712617
O       1.22493659     2.91144057     2.34902404    -0.47238510    -3.59471620    -3.65722565
O       5.28481862     1.87509220     6.34704079     0.47238510     3.59471620     3.65722565
O       3.24150106     1.87504762     1.99903602     2.17035306    -3.70676466    -4.23458097
O       3.26825416     2.91148515     6.69702866    -2.17035306     3.70676466     4.23458097
O       0.36081706     0.51817415     1.99900823    -0.47233548    -3.59484578     3.65625480
O       6.14893815     4.26835862     6.69705645     0.47233548     3.59484578    -3.65625480
O       2.40413462     0.51821873     6.34706848    -2.17065851     3.70678394    -4.23363146
O       4.10562059     4.26831404     2.34899630     2.17065851    -3.70678394     4.23363146
