# total energy = -4989.00735154 eV

CRYSTAL
PRIMVEC
        3.16064274     0.00000000     0.00000000
        0.24745828     4.94606685     0.00000000
       -0.00000137    -0.00006427     4.95380274
PRIMCOORD
6 1
Ti      1.70404971     2.47300112     2.47690126     0.00000000     0.00000000     0.00000000
Ti      0.00000000     0.00000000     0.00000000     0.00000000     0.00000000     0.00000000
O       1.62854699     0.96390293     0.96542312     0.09133436    -0.52276512    -0.53384400
O       1.77955237     3.98209932     3.98837934    -0.09133436     0.52276512     0.53384400
O       0.07550204     1.50907214     3.44232538    -0.09137036     0.52282682    -0.53397513
O       0.17195476     3.43693033     1.51147707     0.09137036    -0.52282682     0.53397513
