# total energy = -4983.72047075 eV

CRYSTAL
PRIMVEC
        4.25340983     0.00000000     0.00000000
        2.00159725     3.75301261     0.00000000
       -3.12754351    -1.87653028     5.61730600
PRIMCOORD
6 1
Ti      1.50109758     2.81490399     1.40432613     0.00076002    -0.00076002     0.00000000
Ti      1.62636584    -0.93842180     4.21297918    -0.00076002     0.00076002     0.00000000
O       0.50044339     0.93824837     0.91501313    -0.00057130    -0.00075873    -2.11435107
O       2.62701986     0.93823380     4.70229224     0.00057130     0.00075873     2.11435107
O      -0.50040297    -0.93822407     3.72366613    -0.00075873    -0.00057130    -2.11435107
O       3.62786613     2.81470615     1.89363918     0.00075873     0.00057130     2.11435107
