# total energy = -19909.56569127 eV

CRYSTAL
PRIMVEC
        6.53543600     0.00000000     0.00000000
        3.27328914     6.13735067     0.00000000
        0.00000000     0.00000000    12.10425323
PRIMCOORD
24 1
Ti      4.30852935     3.63698833     4.49059164     0.07701254    -2.33618542     0.35195587
Ti      5.50019595     2.50036250     7.61366172    -0.07701254     2.33618542    -0.35195587
Ti      6.96993378     2.50036469     1.56148668    -0.75141289    -1.43944369     0.60641290
Ti      2.83879173     3.63698643    10.54276674     0.75141289     1.43944369    -0.60641290
Ti      2.67188504     0.56831320     1.56153524     0.07701254    -2.33618542    -0.35195587
Ti      7.13684039     5.56903787    10.54271825    -0.07701254     2.33618542     0.35195587
Ti      1.20214710     0.56831084     7.61361317     0.75141289     1.43944369     0.60641290
Ti      8.60657832     5.56904017     4.49064012    -0.75141289    -1.43944369    -0.60641290
O       3.22108757     2.16106555     6.17670780     1.77434852     1.99001170    -0.94831293
O       6.58763781     3.97628533     5.92754556    -1.77434852    -1.99001170     0.94831293
O       2.35184346     2.16109026     0.12462008     0.34955600    -1.30560153     1.85348839
O       7.45688200     3.97626067    11.97963289    -0.34955600     1.30560153    -1.85348839
O       4.95099337     0.90760996     0.12458079    -1.77434852    -1.99001170    -0.94831293
O       4.85773199     5.22974086    11.97967217     1.77434852     1.99001170     0.94831293
O       5.82023756     0.90758530     6.17674701    -0.34955600     1.30560153     1.85348839
O       3.98848776     5.22976559     5.92750628     0.34955600    -1.30560153    -1.85348839
O       2.22844749     3.73308455     3.26966077     0.65822939     3.25609279     3.02094860
O       7.58027790     2.40426633     8.83459252    -0.65822939    -3.25609279    -3.02094860
O       4.78743726     2.40420901     2.78250435     0.55984867     2.15037866     2.02966301
O       5.02128812     3.73314187     9.32174875    -0.55984867    -2.15037866    -2.02966301
O       0.59180304     0.66440918     2.78246571     0.65822939     3.25609279    -3.02094860
O       9.21692232     5.47294164     9.32178738    -0.65822939    -3.25609279     3.02094860
O       3.38464368     0.66446650     8.83463109    -0.55984867    -2.15037866     2.02966301
O       6.42408169     5.47288432     3.26962214     0.55984867     2.15037866    -2.02966301
