# total energy = -19960.58372270 eV

CRYSTAL
PRIMVEC
        7.60600008     0.00000000     0.00000000
        0.00000000     7.60600008     0.00000000
       -1.89786986    -1.89786986     4.85670466
PRIMCOORD
24 1
Ti      3.89921902     6.42596800     1.25783099    -0.95732285     2.37796663    -1.10919463
Ti      3.76730201     2.78900700     1.26056101    -0.24273074    -2.26588886    -1.12805830
Ti      0.00733498     6.75667203     1.18126999     0.99467508    -0.69908784     1.19781570
Ti     -0.01765399     2.95838097     1.18274100     0.30339260     0.44377823     0.25968640
Ti      5.62261422     2.90892523     3.52553579     0.41065752    -0.46235805     1.07002231
Ti      5.71600025    -0.88210080     3.67266183     0.33831616     0.47365420     0.22825748
Ti      1.83345222     2.75311222     3.56409879    -0.18778625     0.76664000     0.68911324
Ti      1.96941421    -0.96860678     3.60677583    -0.65448124    -0.83857898     1.43077290
O       3.77815702     4.58932500     0.89457901     0.56236963     1.29617637    -0.77651638
O       3.80369797     0.79628000     0.84818699     0.33342695     1.90994058    -0.02595632
O       0.04445798     4.78514699     0.74320997    -0.26950108     1.26224063    -0.03855293
O      -0.15098501     1.07161298     0.81320700     0.98316039    -1.81668740    -0.11277274
O       5.63253921     4.84663421     4.09959283     0.16948513    -0.57685652    -0.26444551
O       5.61743823     1.08141324     4.11790279     0.38120732    -0.52911549    -1.56169301
O       1.86929324     4.75578024     4.14484384     0.50719297    -1.67901660    -0.04136984
O       1.86319521     0.92737525     4.00457181     0.10353219     0.42879486     0.72617905
O       3.68141220     2.94506121     3.28179183     2.31539984    -0.18189559    -0.79639281
O       3.83051620    -0.78232676     3.23359881     1.40519402    -0.55130694     0.11555982
O       0.04815021     2.94117224     3.15295283    -2.08043152     0.11421359     0.38959941
O       0.12394622    -0.90894580     3.28748980    -1.78452212     0.32215086    -0.62837913
O       5.81630802     6.47791500     1.79040503    -0.29015630     0.17576633    -1.15907559
O       5.69015502     2.63966302     1.55879801    -0.61193692     1.24244673     1.54726346
O       2.02212598     6.60477498     1.66392002    -1.54050428    -0.26099124    -0.54098345
O       1.88866102     2.95669502     1.55823300    -0.18863677    -0.95198601     0.52912063
