# total energy = -19944.31232282 eV

CRYSTAL
PRIMVEC
        5.75702586     0.00000000     0.00000000
        1.79774505     5.85755009     0.00000000
        0.00000000     0.00000000    10.42435298
PRIMCOORD
24 1
Ti      3.15198700     3.47117879     3.86736061     0.39672651    -2.34351358     0.94734414
Ti      4.40278381     2.38637143     6.55699243    -0.39672651     2.34351358    -0.94734414
Ti      5.69746650     2.38637345     1.34477426    -1.10700456    -0.67024725     0.30093951
Ti      1.85730441     3.47117700     9.07957889     1.10700456     0.67024725    -0.30093951
Ti      2.25311461     0.54240384     1.34481606     0.39672651    -2.34351358    -0.94734414
Ti      5.30165623     5.31514656     9.07953709    -0.39672651     2.34351358     0.94734414
Ti      0.95843190     0.54240165     6.55695064     1.10700456     0.67024725     0.30093951
Ti      6.59633894     5.31514874     3.86740240    -1.10700456    -0.67024725    -0.30093951
O       2.45515160     2.06254300     5.31946754     1.54159289     1.92733153    -0.78521211
O       5.09961923     3.79500728     5.10488550    -1.54159289    -1.92733153     0.78521211
O       1.68943540     2.06256664     0.10732458    -0.29324985    -0.33676579     1.04277247
O       5.86533550     3.79498369    10.31702817     0.29324985     0.33676579    -1.04277247
O       4.20074681     0.86623216     0.10729076    -1.54159289    -1.92733153    -0.78521211
O       3.35402402     4.99131812    10.31706199     1.54159289     1.92733153     0.78521211
O       4.96646308     0.86620857     5.31950136     0.29324985     0.33676579     1.04277247
O       2.58830770     4.99134177     5.10485168    -0.29324985    -0.33676579    -1.04277247
O       1.30265652     3.56289406     2.81587781     0.40266679     1.53782442     1.48412100
O       6.25211431     2.29465622     7.60847523    -0.40266679    -1.53782442    -1.48412100
O       3.79192824     2.29460160     2.39633186     1.00047832     1.27352932     0.44753050
O       3.76284258     3.56294868     8.02802100    -1.00047832    -1.27352932    -0.44753050
O       0.40378404     0.63411895     2.39629857     0.40266679     1.53782442    -1.48412100
O       7.15098673     5.22343134     8.02805429    -0.40266679    -1.53782442     1.48412100
O       2.86397016     0.63417356     7.60850847    -1.00047832    -1.27352932     0.44753050
O       4.69080066     5.22337672     2.81584451     1.00047832     1.27352932    -0.44753050
