# total energy = -4986.90458574 eV

CRYSTAL
PRIMVEC
        3.25500393     0.00000000     0.00000000
        1.49636239     4.87564892     0.00000000
       -0.00000996    -0.00006684     5.15977209
PRIMCOORD
6 1
Ti      2.37567824     2.43779109     2.57988604     0.00000000     0.00000000     0.00000000
Ti      0.00000000     0.00000000     0.00000000     0.00000000     0.00000000     0.00000000
O       1.91911902     0.95017924     1.00556357     0.54629612    -0.12784198    -0.47836909
O       2.83223752     3.92540293     4.15420847    -0.54629612     0.12784198     0.47836909
O       0.45655513     1.48758480     3.58545076    -0.54659128     0.12725551    -0.47704523
O       1.03979751     3.38799714     1.57432133     0.54659128    -0.12725551     0.47704523
