# total energy = -19516.31832349 eV

CRYSTAL
PRIMVEC
        5.17600016     0.00000000     0.00000000
        0.00000000     5.50899976     0.00000000
        0.00000000     0.00000000     9.26300011
PRIMCOORD
23 1
Ti      2.02436799     3.15269401     3.33230900    -1.17440323    -1.15979216     2.68438953
Ti      3.30390001     2.19566198     5.90793802     0.97402808     1.53692376    -3.66446974
Ti      4.26434799     2.18989300     1.47002101     0.55447120    -0.50530578     0.53571011
Ti      0.90058300     3.36476598     7.89341900    -1.97589711     1.27220931    -0.75215980
Ti      1.91633101     5.45485800     1.42702001    -0.78054247     1.54883518     1.02103224
Ti      3.38430902     5.36124802     7.90582398    -0.36218295    -0.23414480     1.31414865
Ti      0.65511397     0.63782099     5.85059802    -0.08567845     0.09754923    -4.05836546
Ti      4.51034799     4.83128299     3.35108500     2.07253540     1.48317998     3.16786227
O       1.56226401     2.08387800     4.84888199     0.48901552    -0.76009988     0.11667490
O       3.42870900     3.59016601     4.55042698     1.00074186     0.77207043    -0.29623516
O       4.95826399     3.19338801     0.07563599     0.22463402    -0.04660898     0.20393895
O       3.69735002     0.94224698     0.08232903    -0.17096068    -0.83191673    -0.74882816
O       1.76852900     4.90422398     8.99492701    -0.29107727    -0.98180362    -0.78585617
O       4.26616000     0.84241298     4.68088499    -0.69419940    -0.06947123     0.81400102
O       1.01190401     4.90068400     4.37224098     0.38970508    -0.37652560     0.31548553
O       0.24177399     3.18793701     2.83293898    -1.14753210    -0.37289057    -1.96048129
O       4.98347801     2.15800298     6.81095101     0.38831591     0.33204755     0.78486193
O       2.56409000     1.53842500     2.24746902     0.17326928     1.11388021     0.11804556
O       2.53430600     3.51188000     6.99970599     0.20672988     1.32129812     1.69346338
O       0.04885301     0.68798001     2.15175101     0.94962162    -1.09723694    -1.10205621
O       4.97628999     4.91475498     7.03652302     0.98996507    -1.36769986     1.12729186
O       2.36586798     0.96231200     6.86174700    -1.13939944    -1.92798304     1.34138590
O       3.18166202     4.14383300     2.14071999    -0.59116009     0.25348541    -1.86983958
