# total energy = -4990.64925807 eV

CRYSTAL
PRIMVEC
        3.80314821    -0.00000423    -0.00002752
       -0.00000423     3.80314821    -0.00002752
       -1.90157093    -1.90157093     4.85369047
PRIMCOORD
6 1
Ti     -0.00015553     2.85251398     1.21339497    -0.00003342     0.00003342     0.00000000
Ti      1.90172847    -0.95094104     3.64024015     0.00003342    -0.00003342     0.00000000
O       0.00004477     0.95078631     0.79061510     0.00004859     0.00007559     0.00122230
O       1.90152807     0.95078652     4.06302007    -0.00004859    -0.00007559    -0.00122230
O       0.00000074    -0.95074080     3.21746028     0.00007559     0.00004859     0.00122230
O       1.90157204     2.85231359     1.63617489    -0.00007559    -0.00004859    -0.00122230
