# total energy = -4983.32636919 eV

CRYSTAL
PRIMVEC
        4.26553489     0.00000000     0.00000000
        0.00000000     3.21795946     0.00000000
        0.00000000    -0.00008508     5.64183051
PRIMCOORD
6 1
Ti      2.13276739     1.60893702     2.82091531     0.00000000     0.00000000     0.00000000
Ti      0.00000000     0.00000000     0.00000000     0.00000000     0.00000000     0.00000000
O       2.13276739     0.62711626     1.09950970     0.00000000    -0.03611836     2.03070405
O       2.13276739     2.59075778     4.54232092     0.00000000     0.03611836    -2.03070405
O       0.00000000     0.98178694     3.92042617     0.00000000     0.03438440     2.03147178
O       0.00000000     2.23608710     1.72140445     0.00000000    -0.03438440    -2.03147178
