# total energy = -4986.33173537 eV

CRYSTAL
PRIMVEC
        4.21103544     0.00000000     0.00000000
        1.23550280     4.02571140     0.00000000
       -2.72330712    -2.01288379     5.43709596
PRIMCOORD
6 1
Ti      0.92649823     3.01943788     1.35927367     0.00063686    -0.00063686     0.00000000
Ti      1.79673262    -1.00661047     4.07782148    -0.00063686     0.00063686     0.00000000
O       0.30891974     1.00642227     0.88565835    -0.00070011    -0.00123362    -1.40569744
O       2.41431092     1.00640506     4.55143680     0.00070011     0.00123362     1.40569744
O      -0.30888731    -1.00639830     3.60420616    -0.00123362    -0.00070011    -1.40569744
O       3.03211796     3.01922551     1.83288905     0.00123362     0.00070011     1.40569744
