# total energy = -4976.42430592 eV

CRYSTAL
PRIMVEC
        2.82876150     0.00000000     0.00000000
        2.08576270     3.91080441     0.00000000
       -0.00001342    -0.00006042     4.58656977
PRIMCOORD
6 1
Ti      2.45725516     1.95537190     2.29328498     0.00000000     0.00000000     0.00000000
Ti      0.00000000     0.00000000     0.00000000     0.00000000     0.00000000     0.00000000
O       1.82086245     0.76214637     0.89385494   -10.93413704     4.40223392     6.47996064
O       3.09364790     3.14859752     3.69271507    10.93413704    -4.40223392    -6.47996064
O       0.63638703     1.19320124     3.18714082    10.93325901    -4.40174824     6.47881804
O       1.44936195     2.71754272     1.39942914   -10.93325901     4.40174824    -6.47881804
