# total energy = -19515.91592558 eV

CRYSTAL
PRIMVEC
        5.17600016     0.00000000     0.00000000
        0.00000000     5.50899976     0.00000000
        0.00000000     0.00000000     9.26300011
PRIMCOORD
23 1
Ti      1.88186400     3.32579900     3.38606700    -1.72907266    -0.34549366     2.60390780
Ti      3.53957899     2.29469099     5.93429999    -1.10677625    -0.40664814    -1.24471547
Ti      4.14837202     2.08311900     1.42143598     3.24776987     0.72987578    -0.75323529
Ti      0.81509399     3.44092300     7.79137701     0.74117810     0.24925132     1.72924492
Ti      1.82227700     0.38348200     1.39134997    -0.29596674    -2.16786732    -1.76642180
Ti      3.32415998     5.10916502     8.00745199    -1.20934325     0.72421164     0.89937916
Ti      0.85783098     0.53813601     5.91782501     0.03325338    -0.43858562    -3.17750622
Ti      4.28580501     4.81886097     3.39377600     2.81244157     1.15280955     1.17082168
O       1.82210602     1.93979901     4.82515702    -0.01116425     0.20794216     0.02200762
O       3.83338302     3.32570799     4.36841699    -0.93313544    -0.68178893     0.96807881
O       5.05752600     2.91152799     9.17268199    -0.88197279    -0.34511108     2.22175560
O       3.43707699     0.88918601     0.20752501     0.20690163    -1.15222488    -1.06575094
O       1.64193498     4.91051902     8.86613601    -0.66393519     0.82455849     1.60061824
O       4.37483898     0.44499198     4.87257500    -0.18797034     2.08875290     0.18691747
O       1.27045202     4.74196797     4.46185900     0.52632455    -0.00406337     0.90693307
O       0.24905701     3.61019600     2.48473902     0.00855715    -1.62759041    -1.00805048
O       0.05765402     2.03319700     6.88222499    -0.78476757    -1.91676737    -1.54440671
O       2.38231698     2.03597401     1.93957898    -0.69269067     0.93368797     1.24278457
O       2.68847899     3.31502501     7.47182201     0.83572197    -0.81821532    -1.67134777
O       0.05482499     0.61076098     2.11979500     0.01549682     1.37361623    -0.46965973
O       4.85082598     4.61426501     7.02777900     0.94785964     1.40029015    -0.93387772
O       2.67912202     0.72167802     6.73990198    -0.54116471    -0.46399405     0.51361430
O       2.86455102     4.51504100     2.19469401    -0.33754432     0.68335371    -0.43109137
