# total energy = -4985.52826598 eV

CRYSTAL
PRIMVEC
        3.31299607     0.00000000     0.00000000
        1.99652629     4.79166275     0.00000000
       -0.00001273    -0.00006897     5.30225294
PRIMCOORD
6 1
Ti      2.65475472     2.39579673     2.65112641     0.00000000     0.00000000     0.00000000
Ti      0.00000000     0.00000000     0.00000000     0.00000000     0.00000000     0.00000000
O       2.04558903     0.93381094     1.03333098     0.60866313     0.10814244    -0.45772055
O       3.26392041     3.85778253     4.26892179    -0.60866313    -0.10814244     0.45772055
O       0.60916023     1.46195796     3.68445855    -0.60885494    -0.10762642    -0.45720325
O       1.38735330     3.32963571     1.61779427     0.60885494     0.10762642     0.45720325
