# total energy = -19518.26182153 eV

CRYSTAL
PRIMVEC
        5.93400000     0.00000000     0.00000000
        0.00000000     9.29699974     0.00000000
        0.00000000     0.00000000     4.64899994
PRIMCOORD
23 1
Ti      4.44649302     7.05691900     2.25502598     0.44910504    -0.43377252     0.55427425
Ti      4.46796402     2.26337201     2.35049099    -0.51524978     0.13222777    -0.18433274
Ti      1.35607301     7.05434799     2.14313802    -0.47080850     0.12271443     1.18487816
Ti      1.48203201     2.29003101     2.35468202     0.26902851    -0.18374833    -0.00091814
Ti      3.01056902     4.57984399     0.17341800    -0.16246755    -0.94911897     0.84982447
Ti      2.98131901     9.12511699     4.58644601    -0.65666102     0.74702839    -0.73010307
Ti      0.01112299     4.61360598     4.61750300     0.07212461     0.25274545    -0.58353650
Ti      5.92412402     0.10639802     0.06571900     0.69472005     0.01662913    -0.51694876
O       4.49876102     5.58210798     0.97013102    -0.09501284     0.00496506    -0.42795899
O       4.43930399     0.89659099     0.90501502    -0.30517592     0.27881979    -0.10757294
O       1.55786703     5.68008102     0.91399701     0.04073914    -0.44002236    -0.51253032
O       1.49528002     0.86297602     0.89018298    -0.00717544     0.60762878     0.41834024
O       4.49276999     8.30224002     3.68784298    -0.61319111     0.27277846     0.91312223
O       4.41586202     3.69595002     3.72533598     0.46143528     1.12528691     0.64012162
O       1.44326798     8.38354699     3.72100202     0.27232441    -0.10693042     0.06344636
O       1.66347202     3.86533098     3.76455701    -1.13592357    -0.61023048    -0.56754912
O       3.03186798     1.37832200     3.17691901    -0.42578333    -0.31272314     0.41166899
O       0.05362899     6.02465801     3.21744800    -0.25339671     0.30908554    -0.30790746
O       5.88451299     1.45398101     3.31806799     0.56725679     0.24604489    -0.54222606
O       2.87367203     8.00636501     1.44345398     0.86797570    -1.24336024     0.53094817
O       2.88645399     3.26652999     1.50504201     0.81258769     0.27494873    -0.68429345
O       5.81538799     8.00854501     1.46970700     0.49591970    -0.36572053    -0.47896533
O       0.10843699     3.19834402     1.37545598    -0.36237064     0.25472366     0.07821839
