# total energy = -19960.97185993 eV

CRYSTAL
PRIMVEC
        7.60600008     0.00000000     0.00000000
        0.00000000     7.60600008     0.00000000
       -1.89786986    -1.89786986     4.85670466
PRIMCOORD
24 1
Ti      3.84391899     6.64008200     1.10268701    -0.92656113    -0.39318815     0.38211209
Ti      3.75189999     2.79195700     1.18873901     0.43344882     1.20649163     1.50106560
Ti     -0.00527801     6.72932198     1.23377200     0.90866033    -1.30572623    -0.72263709
Ti     -0.08649000     2.73208102     1.20311099    -0.38645238     1.77072069     2.17189238
Ti      5.68935522     2.77205020     3.79451183    -0.12179320     1.77913848    -1.19302933
Ti      5.73087024    -0.91367675     3.55984183    -0.38514137    -1.20247840     0.85122598
Ti      1.87525124     2.76907422     3.61854880     0.13549513     0.84091071    -0.34937268
Ti      1.96297523    -0.89017176     3.60905282     0.16044898    -0.45249221    -0.36780339
O       3.82765700     4.64587701     0.74785298    -0.05324062     1.82853454    -0.04588701
O       3.80726198     0.99797702     0.76317800     0.16346386    -0.99609227    -0.18881417
O      -0.05967098     4.66679999     0.92420299     0.04769295     1.56742349    -0.86366858
O      -0.13080801     0.90623202     0.77656502     0.15731918     0.76685597    -0.30945912
O       5.84635021     4.74485421     4.13067183    -0.01250174     0.12454968    -0.21632473
O       5.75766020     0.97055823     4.13988079    -0.28085096    -1.58934009    -0.68508792
O       1.73780121     4.71564622     4.09731880     0.38862727     0.74083923    -0.05648613
O       2.04293121     0.92883022     3.90328781    -0.40405004    -0.18128958     1.09465323
O       3.80875024     2.80916924     3.19985582     0.08817267     0.01017232     0.41361558
O       3.82637523    -0.97207379     3.25465684     0.47512718    -0.43298190    -0.17111675
O       0.01729621     2.67533523     3.18926683    -0.67557843    -0.14241063     0.41503765
O      -0.05827480    -0.73332277     3.17840081     1.01187165    -0.58720778     0.51369400
O       5.73091903     6.68879901     1.59724400    -1.16707558    -0.13877817    -0.13355703
O       5.64362102     2.93613600     1.70963400     0.85548424    -0.65656332    -0.31282547
O       1.97813600    -0.63180499     1.72677601    -0.54672986    -1.30651041    -1.16798909
O       1.88831499     3.10358901     1.67859601     0.13416278    -1.25057733    -0.55923828
