# total energy = -4987.37667584 eV

CRYSTAL
PRIMVEC
        3.57649585     0.00000000     0.00000000
        1.04933115     3.41909736     0.00000000
       -2.31294578    -1.70957254     4.61780753
PRIMCOORD
6 1
Ti      0.78688891     2.56445409     1.15445161     0.00074305    -0.00074305     0.00000000
Ti      1.52599209    -0.85492944     3.46335523    -0.00074305     0.00074305     0.00000000
O       0.26237019     0.85476960     0.75220298     0.00032653     0.00106752    -0.13616336
O       2.05051064     0.85475498     3.86560386    -0.00032653    -0.00106752     0.13616336
O      -0.26234265    -0.85474924     3.06110660     0.00106752     0.00032653    -0.13616336
O       2.57522347     2.56427372     1.55670029    -0.00106752    -0.00032653     0.13616336
