# total energy = -19933.41811372 eV

CRYSTAL
PRIMVEC
        6.01630279     0.00000000     0.00000000
        2.17454284     6.02261557     0.00000000
        0.00000000     0.00000000    10.94175178
PRIMCOORD
24 1
Ti      3.46925255     3.56899632     4.05931189     0.19881397    -2.46180185     0.82347143
Ti      4.72159329     2.45361909     6.88244001    -0.19881397     2.46180185    -0.82347143
Ti      6.07458425     2.45362114     1.41152038    -0.87788473    -0.86623840     0.25677334
Ti      2.11626162     3.56899445     9.53023164     0.87788473     0.86623840    -0.25677334
Ti      2.38198129     0.55768869     1.41156424     0.19881397    -2.46180185    -0.82347143
Ti      5.80886458     5.46492684     9.53018778    -0.19881397     2.46180185     0.82347143
Ti      1.02899023     0.55768647     6.88239614     0.87788473     0.86623840     0.25677334
Ti      7.16185564     5.46492912     4.05935575    -0.87788473    -0.86623840    -0.25677334
O       2.66989137     2.12066526     5.58349218     1.75200819     2.11196765    -0.83802336
O       5.52095447     3.90195015     5.35825972    -1.75200819    -2.11196765     0.83802336
O       1.86969107     2.12068955     0.11265150    -0.26658956    -0.53166371     1.31061389
O       6.32115484     3.90192591    10.82910010     0.26658956     0.53166371    -1.31061389
O       4.43368318     0.89064241     0.11261599    -1.75200819    -2.11196765    -0.83802336
O       3.75716266     5.13197300    10.82913560     1.75200819     2.11196765     0.83802336
O       5.23388355     0.89061810     5.58352769     0.26658956     0.53166371     1.31061389
O       2.95696224     5.13199732     5.35822421    -0.26658956    -0.53166371    -1.31061389
O       1.54126637     3.66329610     2.95564013     0.54082044     2.13243493     2.04689584
O       6.64957947     2.35931931     7.98611177    -0.54082044    -2.13243493    -2.04689584
O       4.07859199     2.35926321     2.51527060     0.92447777     1.70026035     0.92672105
O       4.11225386     3.66335220     8.42648112    -0.92447777    -1.70026035    -0.92672105
O       0.45399509     0.65198835     2.51523564     0.54082044     2.13243493    -2.04689584
O       7.73685076     5.37062706     8.42651608    -0.54082044    -2.13243493     2.04689584
O       3.02498257     0.65204445     7.98614661    -0.92447777    -1.70026035     0.92672105
O       5.16586327     5.37057096     2.95560523     0.92447777     1.70026035    -0.92672105
