# total energy = -19518.50314335 eV

CRYSTAL
PRIMVEC
        7.60600008     0.00000000     0.00000000
        0.00000000     7.60600008     0.00000000
       -1.89786986    -1.89786986     4.85670466
PRIMCOORD
23 1
Ti      3.80140600     6.59406200     1.22036201     1.23738988    -1.49681248    -0.06169956
Ti      3.87913002     2.75721101     1.27876598     0.65523354     1.12843497    -1.18884615
Ti      0.09532398     6.86241799     1.24414398    -2.16365173    -1.45972945    -0.02085885
Ti     -0.02101400     2.87897401     1.15248698    -0.59617142     1.83564570    -0.69751535
Ti      5.61778421     2.90472621     3.67659383    -0.03792661    -0.32023590     0.84700757
Ti      5.64998724    -1.00466576     3.60162481     0.28080776     0.88742893    -0.49332289
Ti      2.04275320     2.74800820     3.56745780    -0.88682600     0.02940572     1.85244503
Ti      1.87755623    -1.06399278     3.67670379    -0.10898113     0.09928499     0.07982327
O       4.09573100     4.72167302     0.74295798    -0.97984084     0.06145119     0.23977448
O       3.99988001     0.88349597     0.85100502    -0.80920103     0.42612965    -1.05243313
O      -0.23774299     4.83594901     0.82405402     1.22597495     0.30053019    -0.15100712
O      -0.25422601     1.06564402     0.71337200     0.81876605    -1.64447665     0.60941287
O       5.67341921     4.77404723     4.05782683     1.21265097     0.13075916     0.31378526
O       5.63630123     1.02040625     4.08479682     0.24991929     0.12719175    -0.85274190
O       1.65505424     4.60151724     3.95531583    -0.19649843     1.40267176     0.71182766
O       1.83152824     0.91449825     3.98946681     0.23975932    -0.43276053     0.34280454
O       3.81378224     2.97408124     3.15114083     0.00881349    -0.30437039     0.31786637
O       3.79585123     6.27863023     3.22780681    -1.46390184     1.02780478    -0.65340420
O      -0.02733079    -0.78993976     3.22440081     0.98384970    -0.66331838     0.11592054
O       5.69928502     6.80214798     1.72982503    -0.51440131    -0.25509827    -0.66498111
O       5.76965501     2.90801499     1.66465198    -0.06869476    -0.32611370     0.48482179
O       1.90527798     6.78710602     1.56580802     0.38159556    -0.21020319     0.59561247
O       1.77145101     2.90093598     1.69784901     0.53133383    -0.34361984    -0.67429185
