# total energy = -19517.89456415 eV

CRYSTAL
PRIMVEC
        5.93400000     0.00000000     0.00000000
        0.00000000     9.29699974     0.00000000
        0.00000000     0.00000000     4.64899994
PRIMCOORD
23 1
Ti      4.41649100     7.01086798     2.28830298     0.94195587     0.22481426     0.23361772
Ti      4.50292501     2.36838602     2.33532398    -0.71648907    -0.81135278     0.37287026
Ti      1.33609000     6.99496102     2.19957900    -0.51270053    -0.00340286     0.18879180
Ti      1.50173899     2.28955200     2.33361701     0.83393016    -0.13607517     0.64531242
Ti      2.97852601     4.66881001     0.23571200    -0.06117068    -0.80338416     0.28964053
Ti      2.92616699     9.16270398     4.58376700     0.29659897     1.09554669    -0.40918145
Ti      5.92832299     4.56218000     4.61185202     0.39431018    -0.19450557    -0.73467552
Ti      5.90752500     0.10034301     4.62671502    -0.63427827     0.44731555     0.68928679
O       4.54090798     5.64319599     0.95293901    -1.05544287    -0.90371379    -0.49134520
O       4.47327600     0.98864000     0.92721199     0.63733069    -0.59782542    -0.38992594
O       1.34486202     5.53101798     0.85383802     1.68723231     0.93576491     0.45996770
O       1.53422201     0.90917102     0.89140601    -0.13735404    -0.55251510    -0.06783884
O       4.50071199     8.36956602     3.80460800    -0.09472822    -0.40783496    -0.85816359
O       4.39720302     3.76025898     3.85264502    -0.30741252     0.04834576    -0.71418639
O       1.62924801     8.44116000     3.41750098    -0.53758702     0.03287877     1.76737491
O       1.51782101     3.57958802     3.82697600     0.16955095     1.35606999     0.18828350
O       3.06060098     1.36536499     3.24562701    -0.07172686     0.52944484    -0.42938236
O       0.05046001     6.10774900     3.26386002     0.08312380    -0.18121399    -0.37449083
O       0.04965498     1.47105698     3.29654699    -0.25136245    -0.28734428    -0.40328874
O       3.01709801     7.75192500     1.34067501    -0.59824862     0.17987213    -0.01875312
O       3.03736999     3.30579198     1.49299900    -0.41379838     0.05783364     0.18066866
O       5.85012202     7.86088402     1.35422300     0.61085834     0.43295516    -0.15086879
O       0.06978499     3.31625402     1.50491797    -0.26259175    -0.46167363     0.02628620
