# total energy = -4989.87345491 eV

CRYSTAL
PRIMVEC
        3.08548518     0.00000000     0.00000000
        0.00000000     4.83449270     0.00000000
        0.00000000    -0.00006274     4.83449270
PRIMCOORD
6 1
Ti      1.54274253     2.41721493     2.41724629     0.00000000     0.00000000     0.00000000
Ti      0.00000000     0.00000000     0.00000000     0.00000000     0.00000000     0.00000000
O       1.54274253     0.94215918     0.94217141     0.00000000    -0.37363182    -0.37363182
O       1.54274253     3.89227067     3.89232118     0.00000000     0.37363182     0.37363182
O       0.00000000     1.47503031     3.35941868     0.00000000     0.37343333    -0.37343333
O       0.00000000     3.35939954     1.47507391     0.00000000    -0.37343333     0.37343333
