# total energy = -4987.55874756 eV

CRYSTAL
PRIMVEC
        4.17614245     0.00000000     0.00000000
        0.62290829     4.12942502     0.00000000
       -2.39956300    -2.06474489     5.34482565
PRIMCOORD
6 1
Ti      0.46702935     3.09722660     1.33620612    -0.00068880     0.00068880     0.00000000
Ti      1.93245882    -1.03254610     4.00861895     0.00068880    -0.00068880     0.00000000
O       0.15577099     1.03235008     0.87062828    -0.00058775    -0.00166736    -1.09230016
O       2.24371699     1.03233027     4.47419678     0.00058775     0.00166736     1.09230016
O      -0.15574544    -1.03232809     3.54304111    -0.00166736    -0.00058775    -1.09230016
O       2.55523337     3.09700844     1.80178396     0.00166736     0.00058775     1.09230016
