# total energy = -19954.95783527 eV

CRYSTAL
PRIMVEC
        5.48765610     0.00000000     0.00000000
        1.15656833     5.72486577     0.00000000
        0.00000000     0.00000000     9.87166568
PRIMCOORD
24 1
Ti      2.67439263     3.39255016     3.66231769     0.48747723    -1.65375422     0.86053441
Ti      3.96983154     2.33231575     6.20934839    -0.48747723     1.65375422    -0.86053441
Ti      5.20393611     2.33231781     1.27347591    -0.93652210    -0.42138905     0.27402159
Ti      1.44028808     3.39254833     8.59819028     0.93652210     0.42138905    -0.27402159
Ti      2.09610860     0.53011748     1.27351549     0.48747723    -1.65375422    -0.86053441
Ti      4.54811559     5.19474860     8.59815069    -0.48747723     1.65375422     0.86053441
Ti      0.86200395     0.53011527     6.20930881     0.93652210     0.42138905     0.27402159
Ti      5.78222023     5.19475081     3.66235727    -0.93652210    -0.42138905    -0.27402159
O       2.14412508     2.01582259     5.03743559     1.07364088     1.36982385    -0.56708735
O       4.50009909     3.70904333     4.83423049    -1.07364088    -1.36982385     0.56708735
O       1.41423432     2.01584564     0.10163434    -0.30680214    -0.08092319     0.63729649
O       5.22998990     3.70902032     9.77003145     0.30680214     0.08092319    -0.63729649
O       3.92181504     0.84661048     0.10160230    -1.07364088    -1.36982385    -0.56708735
O       2.72240912     4.87825543     9.77006349     1.07364088     1.36982385     0.56708735
O       4.65170586     0.84658748     5.03746763     0.30680214     0.08092319     0.63729649
O       1.99251826     4.87827849     4.83419844    -0.30680214    -0.08092319    -0.63729649
O       0.90286960     3.48218782     2.66658328     0.14212472     0.66371202     0.65306250
O       5.74135457     2.24267809     7.20508280    -0.14212472    -0.66371202    -0.65306250
O       3.39628517     2.24262462     2.26928116     0.81025004     0.64068058    -0.02655565
O       3.24793899     3.48224129     7.60238474    -0.81025004    -0.64068058     0.02655565
O       0.32458555     0.61975498     2.26924962     0.14212472     0.66371202    -0.65306250
O       6.31963862     5.10511099     7.60241628    -0.14212472    -0.66371202     0.65306250
O       2.66965494     0.61980840     7.20511429    -0.81025004    -0.64068058    -0.02655565
O       3.97456923     5.10505752     2.66655173     0.81025004     0.64068058     0.02655565
