# total energy = -19961.30519926 eV

CRYSTAL
PRIMVEC
        7.60600008     0.00000000     0.00000000
        0.00000000     7.60600008     0.00000000
       -1.89786986    -1.89786986     4.85670466
PRIMCOORD
24 1
Ti      3.78130700     6.77464098     1.19343498     0.67939087    -0.45561276     0.84821265
Ti      3.82781502     2.92059798     1.25345400    -0.30811829     0.08059409    -1.93182530
Ti     -0.02683098     6.52550999     1.21381699    -0.60414956     0.85861251     0.95321937
Ti     -0.00407800     2.78946500     1.19435898     0.46177441    -1.00713645    -0.32665004
Ti      5.66763424     2.90461122     3.63245780     0.42472429    -1.30300034    -0.34269321
Ti      5.64424022    -1.04318177     3.63677981     0.13765409     1.30808213     0.32765431
Ti      1.92506222     3.01037920     3.63098881    -0.31462267    -1.99885090     0.37458159
Ti      1.91811523    -0.92374377     3.60804082    -0.24062989     2.04115585     0.40109893
O       3.92888501     4.78866300     0.74841798    -0.53496063     0.51330577     0.29242093
O       3.96718702     1.03363398     0.75390200    -0.69799872    -1.27616547     0.39646528
O       0.08382998     4.62315202     0.72878698    -0.12974408     1.21903348     0.25012549
O      -0.03597400     0.82002100     0.75267801     0.38115564     0.26811422     1.10189449
O       5.30667625     4.73386421     4.11938782     0.82954026    -1.43672064    -0.25127889
O       5.73112625     0.87303821     4.05838479    -0.09758549     0.43512363     0.17214725
O       2.07465322     4.88037222     4.08148481    -0.36993149    -1.18341495    -0.03088796
O       1.93340824     1.02831025     4.08831781    -0.51899022    -0.43534655    -0.36521943
O       3.82173122     2.80477320     3.16297783     0.19114745     0.28616749     0.97200308
O       3.76070523    -0.81168276     3.20680482    -0.00592305     0.19494883    -0.48161382
O       0.06283324     3.02073324     3.21150582    -1.05660989     0.22519710     0.20271330
O      -0.08237178    -1.05106879     3.21581782     1.09966252    -0.11639877    -0.06877652
O       5.65277500     6.45156800     1.72964802     0.22913166     0.25909273    -1.23099143
O       5.70715299     2.72580202     1.66082402     1.09451131     0.49666790     0.15999775
O       1.90048400     6.45338700     1.65774399    -0.22298055     0.62615950    -0.83676892
O       1.93868599     2.70401103     1.68193200    -0.42644796     0.40039136    -0.58582864
