# total energy = -19907.26162971 eV

CRYSTAL
PRIMVEC
        7.52942589     0.00000000     0.00000000
        0.00003181     5.92308541     0.00000000
        0.00000000     0.00000000    11.98800593
PRIMCOORD
24 1
Ti      2.72907361     3.51001498     4.44746470     0.50655739    -0.83811592     1.25813817
Ti      4.80038415     2.41307064     7.54054130    -0.50655739     0.83811592    -1.25813817
Ti      6.49365652     2.41307270     1.54649040     0.50689163     0.83839977    -1.25883109
Ti      1.03580125     3.51001319    10.44151572    -0.50689163    -0.83839977     1.25883109
Ti      2.72905784     0.54847240     1.54653847     0.50655739    -0.83811592    -1.25813817
Ti      4.80039992     5.37461341    10.44146766    -0.50655739     0.83811592     1.25813817
Ti      1.03578548     0.54847014     7.54049323    -0.50689163    -0.83839977    -1.25883109
Ti      6.49367229     5.37461567     4.44751276     0.50689163     0.83839977     1.25883109
O       2.38312208     2.08561910     6.11738767     0.78118371     1.48006303    -1.28052786
O       5.14633576     3.83746651     5.87061833    -0.78118371    -1.48006303     1.28052786
O       1.38165736     2.08564300     0.12342326    -0.78080421     1.48075157    -1.28177151
O       6.14780054     3.83744269    11.86458239     0.78080421    -1.48075157     1.28177151
O       5.14631999     0.87592374     0.12338437    -0.78118371    -1.48006303    -1.28052786
O       2.38313785     5.04716188    11.86462129     0.78118371     1.48006303     1.28052786
O       6.14778477     0.87589991     6.11742656     0.78080421    -1.48075157    -1.28177151
O       1.38167300     5.04718577     5.87057943    -0.78080421     1.48075157     1.28177151
O       0.27358082     3.60275630     3.23825948    -1.40980941     0.30614368     0.00725463
O       7.25587701     2.32032931     8.74974652     1.40980941    -0.30614368    -0.00725463
O       4.03830188     2.32027407     2.75578164    -1.40934121    -0.30603724    -0.00724306
O       3.49115595     3.60281161     9.23222415     1.40934121     0.30603724     0.00724306
O       0.27356505     0.64121360     2.75574335    -1.40980941     0.30614368    -0.00725463
O       7.25589278     5.28187209     9.23226244     1.40980941    -0.30614368     0.00725463
O       3.49114018     0.64126884     8.74978474     1.40934121     0.30603724    -0.00724306
O       4.03831765     5.28181678     3.23822119    -1.40934121    -0.30603724     0.00724306
