# total energy = -39034.58791428 eV

CRYSTAL
PRIMVEC
        7.60600008     0.00000000     0.00000000
        0.00000000     7.60600008     0.00000000
       -3.79573973    -3.79573973     9.71340985
PRIMCOORD
46 1
Ti      1.79823547     5.14898143     6.09962264     1.52235795     0.99367543    -1.14157151
Ti      3.83737402     6.49855000     1.31276101    -1.59243287    -0.53225506    -1.09704719
Ti      1.89638743     1.15028746     6.26334161     1.05905193    -1.70430496     0.11537984
Ti      3.86104502     2.45313301     1.25594600    -1.23807739     0.67369278    -0.17433937
Ti     -1.94780255     4.90623544     5.92649765    -0.24832058    -0.65557164     0.90100538
Ti     -0.05455299     6.49689701     1.13879701     0.05228032     0.36562772     0.15883947
Ti     -1.82939756     1.09532145     6.09737062    -2.48338396    -0.54542606    -0.41334715
Ti      0.00385098     2.63922401     1.15354100     0.47037938     0.20709909     0.40748992
Ti      3.83376344     0.79961244     8.61282362    -0.23918622     0.42611320    -1.47644934
Ti      5.79227199     2.90148098     3.61330799     0.13413862    -1.02817168     0.44940277
Ti      3.77123343    -2.94964055     8.36547263     1.11958009    -0.22502046     0.59509053
Ti      5.70206400    -0.93682799     3.58359299     0.71851690     1.26604123     1.52840827
Ti      0.01013544     0.73927147     8.47862062    -0.09388387    -0.31091051     1.68185510
Ti      1.98436002     3.18474400     3.50654299    -1.02347196    -0.35890428     0.64978846
Ti     -0.00533654    -3.02206857     8.28248361    -0.94900378    -0.52989453     0.75401742
Ti      1.92488098    -0.59547898     3.50147701    -1.56120579    -0.79471260     1.87529186
O       1.92973046    -0.66305756     5.85843460    -0.53631098    -0.19934747    -0.89392559
O       3.86967098     0.67352500     1.23833102    -0.25551658     1.30803199    -1.37722889
O      -1.68604757     2.83208245     5.61199263    -0.28875350     1.77771923    -0.34860007
O       0.01906298     4.63227699     0.82874100     0.22614918     0.38446903     0.46011348
O      -1.60058454    -0.90596854     5.47800664    -0.48065094    -0.21538113     1.84495438
O       0.29268201     0.81404501     0.55411399    -0.96078458    -0.62469911     0.96033027
O       3.40574144     2.64071545     8.89549460     0.56545239     1.79375598     0.67816419
O       5.75766698     4.78275098     4.03246998    -0.28894891    -0.10382067    -0.64773980
O       3.86253645    -1.05063058     8.93731664     0.28933175    -0.88065818    -0.77405840
O       5.49271698     1.04996799     4.18560001     0.47052722    -0.37150809    -1.78950518
O       0.16496445     2.63470246     9.04990762    -0.43583069     0.21371249     0.12871924
O       1.54138199     4.95156302     4.17324197     1.55452657    -0.17600802    -0.13875580
O      -0.38870355    -1.28461254     8.95190463     1.08033887     0.67781529     0.75982092
O       1.71435299     1.39593498     4.42661601     0.43334803     0.52360484    -1.34391484
O       1.87038747     0.53081844     8.30642163    -1.01915585     0.57278055    -0.54173189
O       3.84747099     3.01717601     3.31698402     0.11029934     0.28041927    -0.87696222
O       1.88298247    -2.65599856     8.10501365    -0.11461931    -0.85888890    -0.54324345
O       3.72754900    -0.84625502     3.39276300     0.31811706    -0.52317675    -0.10114158
O      -1.96858753     0.92825744     8.07776562    -0.12636565    -0.19234713     0.99416214
O       0.06231099     3.11384198     3.05322398    -1.66094483    -0.94221787     0.50931413
O      -1.97430957     4.35090546     7.94083662    -0.08085171     0.50513814    -0.62790322
O      -0.02711599    -0.74555100     3.30122502    -0.21960752     0.40983862    -1.53334145
O       3.80590644     4.97891846     6.13814865    -0.27803560    -0.75918200     1.37626498
O       5.60202700     6.49563000     1.68328299     2.63778544    -0.74840213    -0.43669406
O       3.73254544     1.11810644     6.58793762    -0.24065869     0.52378610    -0.23434380
O       5.69815999     2.63415301     1.51277499     0.86937978     0.26967128     0.49528027
O       0.07277346     4.54777448     6.38049362    -0.71722081     0.05556799     1.02629015
O       1.88248298     6.61764399     1.66339201    -0.36235393    -0.56108511     0.02979653
O      -0.12657454     0.98515447     6.67110962     3.21134426     0.51428819    -1.20614968
O       1.94686401     2.74649099     1.68295701     0.65267169     0.09904536    -0.66178497
