# total energy = -19918.54358950 eV

CRYSTAL
PRIMVEC
        6.38405788     0.00000000     0.00000000
        1.01351887     6.71855153     0.00000000
        0.00000000     0.00000000    11.45850864
PRIMCOORD
24 1
Ti      2.91452425     3.98140735     4.25102502    -0.14403222    -1.53858444     0.70588532
Ti      4.48305242     2.73714399     7.20748388     0.14403222     1.53858444    -0.70588532
Ti      5.91874639     2.73714626     1.47818361     0.14813262     0.09602842    -0.42257073
Ti      1.47883030     3.98140534     9.98032542    -0.14813262    -0.09602842     0.42257073
Ti      2.40776495     0.62213170     1.47822956    -0.14403222    -1.53858444    -0.70588532
Ti      4.98981174     6.09641983     9.98027946     0.14403222     1.53858444     0.70588532
Ti      0.97207097     0.62212924     7.20743793    -0.14813262    -0.09602842    -0.42257073
Ti      6.42550572     6.09642229     4.25107097     0.14813262     0.09602842     0.42257073
O       2.37747182     2.36571613     5.84718930     1.69179396     1.78947561    -0.39717825
O       5.02010485     4.35283521     5.61131953    -1.69179396    -1.78947561     0.39717825
O       1.52835294     2.36574328     0.11797176    -1.05257531     0.65760050     0.53862600
O       5.86922380     4.35280812    11.34053681     1.05257531    -0.65760050    -0.53862600
O       4.51334554     0.99355938     0.11793460    -1.69179396    -1.78947561    -0.39717825
O       2.88423114     5.72499196    11.34057398     1.69179396     1.78947561     0.39717825
O       5.36246449     0.99353228     5.84722653     1.05257531    -0.65760050     0.53862600
O       2.03511213     5.72501913     5.61128236    -1.05257531     0.65760050    -0.53862600
O       0.84842721     4.08660388     3.09522910     0.47802662     0.82371774     1.14590151
O       6.54914946     2.63194739     8.36327979    -0.47802662    -0.82371774    -1.14590151
O       3.82101893     2.63188490     2.63406179     0.58307885     1.19432903     0.39724767
O       3.57655774     4.08666637     8.82444691    -0.58307885    -1.19432903    -0.39724767
O       0.34166789     0.72732805     2.63402515     0.47802662     0.82371774    -1.14590151
O       7.05590877     5.99122323     8.82448349    -0.47802662    -0.82371774     1.14590151
O       3.06979843     0.72739053     8.36331631    -0.58307885    -1.19432903     0.39724767
O       4.32777824     5.99116074     3.09519252     0.58307885     1.19432903    -0.39724767
