# total energy = -19960.48578385 eV

CRYSTAL
PRIMVEC
        5.93400000     0.00000000     0.00000000
        0.00000000     9.29699974     0.00000000
        0.00000000     0.00000000     4.64899994
PRIMCOORD
24 1
Ti      4.45464701     7.09686801     2.44503898     0.53041981    -1.56680668    -1.70047890
Ti      4.46300499     2.22975698     2.27367001    -0.62523956     1.11226093     0.95249740
Ti      1.47484499     6.95759698     2.44411700    -0.70742541    -0.96945846    -1.15796539
Ti      1.48839902     2.37437699     2.20040299     0.70125296     0.79235464     0.79763929
Ti      2.96029099     4.63656301     4.62674100    -0.25942441    -0.72632303    -0.34591995
Ti      2.98759500     9.22349702     0.01312598    -1.41802871     0.75546392     0.63610967
Ti      5.88075101     4.69633802     0.08614699     0.58923896    -0.70981217    -0.70767352
Ti      0.00071502     0.02437401     4.61622302     1.19141879     0.76144148     0.48361646
O       4.48864802     5.53190398     0.82499601    -0.96348630     1.46359973     1.02493157
O       4.43503898     0.86030600     0.90058401     0.29786061    -0.03353105    -0.58694065
O       1.47188001     5.61125702     0.87190800     0.19554635     0.00954137     0.49043528
O       1.58080400     1.03378898     0.78908202    -0.78761404    -1.11477907    -0.52323203
O       4.45026103     8.33338200     3.79901798     0.13230722     0.82556096     0.21160778
O       4.45533800     3.63574802     3.89313999     0.20777221    -0.14806037    -1.57204813
O       1.38310402     8.32024602     3.81602098     1.01909491    -0.04667300     0.02934787
O       1.49081900     3.77537900     3.71534702     0.14343650    -0.39593204    -0.39110325
O       2.97636803     6.06406002     3.19551498    -0.03928339     0.37779752    -0.17839426
O       2.94773298     1.45042002     3.07185298     0.25829646    -0.88989642     0.97141533
O       5.87323199     6.05378102     3.18059801     0.33307214     0.01197569     0.16862586
O       0.17935299     1.24902601     3.12591299    -1.46279189     0.50635479     0.10312262
O       2.95976202     7.90890601     1.34875300    -0.13198094    -0.07527422     0.76367834
O       3.03386202     3.20406998     1.27220799    -0.24413636    -0.28389103     1.52449248
O       5.90720501     7.88980398     1.52924901     0.23865914     0.83839900    -0.89028928
O       5.83654799     3.30234502     1.50385401     0.80103546    -0.49431225    -0.10347486
