# total energy = -19922.11988533 eV

CRYSTAL
PRIMVEC
        5.93400000     0.00000000     0.00000000
        0.00000000     9.29699974     0.00000000
        0.00000000     0.00000000     4.64899994
PRIMCOORD
24 1
Ti      4.28492102     5.36719502     2.23020202     3.72530489    10.39295768     1.76091707
Ti      4.54751401     2.67924601     2.29042900     1.57637504    -2.23858502    -0.43998970
Ti      1.51055498     5.61465302     2.35719101    -6.74279382     2.56808950     1.23444931
Ti      1.41576500     2.49069401     2.11750102     2.44661382     0.27216963    -1.34751541
Ti      2.78818799     4.51832698     0.22322898     0.58407335     4.05098022    -3.81190019
Ti      3.01153900     1.63231798     4.33461299    -0.02594655   -10.75212344     3.07112010
Ti      0.13628801     4.12019402     0.06196898    -1.23423565     2.58155308    -1.21585894
Ti      0.07571399     1.56263798     4.53547200     0.48985935    -7.72643449    -0.63749652
O       4.45040200     5.55340001     0.25374901    -1.24498569    -3.95130854     2.04027627
O       4.39975698     1.15597902     1.15207698    -0.59696538    -2.60893920    -3.73805757
O       1.27691698     5.59451798     0.44763199    -0.80438535    -3.24026379    -0.10306759
O       1.45611301     0.98544800     1.26532599    -0.23615514    -0.62174517    -3.92011771
O       4.39781099     0.57145899     3.93518900     3.14104668    -4.02094201     0.78990155
O       4.49366298     2.72560299     4.25595598     0.77292095     7.89655288    -0.72772351
O       1.72782098     0.17849202     3.82328902    -0.31098816     2.09651275     0.85254059
O       1.66553099     2.69973702     4.04613101    -3.36453476     7.11666861    -0.31492863
O       2.75496201     6.03488902     3.61022400     2.12238757    -1.56078592    -0.66543748
O       3.22568401     1.31716700     2.35906699    -2.03980113     2.30237617     2.95387184
O       0.01596099     5.83759100     3.79736499     0.71544109     0.84077701    -4.62868418
O       5.87977098     1.57129400     2.54548302     1.49775916    -0.19804238     3.99711148
O       2.77128898     6.38700198     1.50335399     4.43431745     1.83973658    -1.45111291
O       3.29418902     3.89464899     1.90257298    -4.97362762    -0.80758277     1.03658099
O       5.77644801     6.66781301     1.70455702    -0.22693902     0.28054577     2.83883396
O       5.90088801     4.32704602     1.89614300     0.29525917    -4.51216662     2.42628693
