# total energy = -19960.50435033 eV

CRYSTAL
PRIMVEC
        5.93400000     0.00000000     0.00000000
        0.00000000     9.29699974     0.00000000
        0.00000000     0.00000000     4.64899994
PRIMCOORD
24 1
Ti      4.40402898     6.80664800     2.26555698     0.78945083     0.52764096     0.60869142
Ti      4.48432702     2.34317702     2.33230698    -0.23147907    -1.53580405     0.36610569
Ti      1.49801798     7.02234398     2.31745599    -0.67318936    -0.04608216     0.07662225
Ti      1.48270602     2.46671101     2.32434699     0.03340353    -1.95964645    -0.04006037
Ti      2.92488898     4.65620199     0.00306198     0.00042140    -1.04271127     0.10043195
Ti      2.98501002     9.21065903     4.54987801    -0.41326642     2.09549408     0.61489755
Ti      5.92936600     4.66919203     0.05074900     0.32409127    -0.65362095    -0.58891808
Ti      0.00445599     9.19634499     0.11323700     0.16350217     2.00953692     0.64216128
O       4.48951402     5.58729799     0.84003602    -0.75963991     0.84147327     0.73184113
O       4.51757100     0.99966297     0.83430202    -0.41338263    -0.39806502     0.23306365
O       1.50614101     5.61657901     0.88671898     0.05360289    -0.36163736    -0.23313512
O       1.49574903     0.87875899     0.89081402    -0.02374055     0.15965939    -0.05205740
O       4.48253502     8.49224699     3.75557301    -0.18796237    -1.54667313    -0.91713212
O       4.47866700     3.76601801     3.85889899    -0.24400369    -0.05778299    -0.67134151
O       1.44799099     8.43897402     3.76984799     0.51106659    -0.97408259    -0.98941126
O       1.50382401     3.65150998     3.83949898    -0.17445147     0.97859899     0.32080772
O       2.84656000     6.08623800     3.30955702     1.45482404     0.09926493    -0.68104203
O       2.94750702     1.48415502     3.16244802     0.08478576    -0.63905333     0.50718705
O       0.10573401     6.00821500     3.06825002    -1.46496345    -0.60868267     1.58324838
O       0.04410401     1.43424201     3.09193901    -0.38667812     0.21164661     0.45202144
O       2.97668701     7.80847298     1.39159202     0.77671358     0.33590730    -0.05750660
O       2.96332000     3.28370502     1.45833799     0.08436101     1.00760670    -0.60878295
O       5.89709301     7.77156102     1.45742299    -0.46765581     1.28720708    -0.80804146
O       5.82531901     3.41072402     1.52161198     1.16418952     0.26980524    -0.58965059
