# total energy = -4988.86789980 eV

CRYSTAL
PRIMVEC
        2.82199293     0.00000000     0.00000000
        0.44106104     4.39958680     0.00000000
       -0.00000294    -0.00005738     4.42719099
PRIMCOORD
6 1
Ti      1.63152556     2.19976471     2.21359549     0.00000000     0.00000000     0.00000000
Ti      0.00000000     0.00000000     0.00000000     0.00000000     0.00000000     0.00000000
O       1.49695219     0.85740352     0.86279431    -1.29402796     0.84502576     0.86535446
O       1.76609899     3.54212589     3.56439663     1.29402796    -0.84502576    -0.86535446
O       0.13457217     1.34233793     3.07639070     1.29394003    -0.84522862     0.86551592
O       0.30648613     3.05719139     1.35080024    -1.29394003     0.84522862    -0.86551592
