# total energy = -19958.26486794 eV

CRYSTAL
PRIMVEC
        7.60600008     0.00000000     0.00000000
        0.00000000     7.60600008     0.00000000
       -1.89786986    -1.89786986     4.85670466
PRIMCOORD
24 1
Ti      3.57680100     6.54891302     1.13529200     5.72740798     1.10796667    -1.10365698
Ti      3.71390099     2.77069900     1.12740202     1.59511685    -2.08622653     2.74008839
Ti      0.06327499     6.79653098     1.16595200    -3.85785791     1.34590076     0.92227484
Ti      0.00166098     3.02932301     1.29962302    -1.72844454    -2.11632311    -0.82579622
Ti      5.71750221     2.94403122     3.64038080    -1.79430594    -1.59672996    -0.40726752
Ti      5.77053921    -0.83823576     3.67543880     0.24781407     1.06008062    -1.00182095
Ti      1.85319725     2.60232120     3.71680479     1.02882243     1.14171189    -2.06708826
Ti      2.07353221    -1.04325178     3.53976384    -0.66260156     0.02670323     3.87272069
O       3.82347402     4.57508097     0.76734501    -0.44153957     1.94648908     0.32827677
O       3.87181399     0.94030400     0.75694599    -0.55277941    -1.61222883    -1.43518877
O      -0.17855499     4.78120599     0.83910398     0.98043759     1.20912059     0.45324863
O      -0.18940503     1.04988502     0.94325802     1.88854899    -1.51737360    -1.41342489
O       5.64171720     4.79626421     4.04651281     0.82461582     0.86587562     0.26239223
O       5.35544025     0.95070021     4.22423979     1.65638960     0.27150808     0.05059342
O       1.79755024     4.57396325     4.10867780     0.41137872     1.53258734    -1.28163755
O       2.23637524     0.83787222     3.96187980    -0.76623171    -0.02534466     0.34096260
O       3.94168322     2.77086622     3.06477079    -3.13503981     0.66669450     1.18244667
O       3.95421424    -0.79756479     3.00339882    -2.15147010    -1.72488073     1.18638431
O      -0.04163979     2.63107722     3.31045080     1.24523946     0.30384100     0.42296745
O       0.08941921    -0.71256775     3.17431583     0.52019864    -0.88275415     1.03636090
O       5.80231800     6.88123702     1.69364401     0.48220903    -1.26268363    -0.30733127
O       5.66464201     2.67632998     1.75735097     1.72639305     1.19810778    -1.05788310
O       1.98176700     6.83719698     1.71002099    -2.85976686    -0.36628669    -1.65799526
O       1.88985198     2.72936602     1.68421402    -0.38453459     0.51424448    -0.23962588
