# total energy = -19068.61401701 eV

CRYSTAL
PRIMVEC
        5.17600016     0.00000000     0.00000000
        0.00000000     5.50899976     0.00000000
        0.00000000     0.00000000     9.26300011
PRIMCOORD
22 1
Ti      1.68378100     3.25859201     3.24196299    -1.10471731     2.18922188    -0.67914815
Ti      4.09241698     2.39392401     6.10451203    -2.69671232     1.38882868    -2.11787065
Ti      4.21755999     2.31924598     1.38828397     0.52169168     0.29683140     2.22890944
Ti      1.69245199     2.09818298     8.10294901    -0.84619562    -1.57490617    -0.17585015
Ti      1.50119299     0.75611798     1.24546602     1.58608945    -0.38555737     1.81689335
Ti      3.27840298     5.27925402     7.89777498     0.63358536     1.11972484    -0.60164325
Ti      0.62933500     5.50367899     6.00530701     3.62703035    -0.21214154    -3.81129444
Ti      4.02847802     5.24338802     3.49517102     1.97796839    -0.74485632    -1.45670866
O       2.73806401     3.23897398     4.59552198     1.92779638     0.25808897     1.76626445
O       0.67236600     2.41776799     0.58721799     1.46911938     0.91697091    -2.12864898
O       4.62385799     4.44050400     6.70635701    -0.51242234    -3.02309419     0.44334680
O       3.37019698     1.10863200     0.37200700     0.28824417    -1.08002082    -2.66929561
O       1.58284202     0.26703300     8.72628102    -2.33614891    -2.80722300    -0.81599671
O       4.36070799     0.80268802     4.97846602    -1.13751431     1.01519712    -1.16696888
O       0.95701399     4.96831100     4.16044298    -1.06230283    -0.35417525     1.72107730
O       4.84628400     3.62505001     2.61024701     0.20890195     0.93095361     0.96798496
O       5.01635802     1.21294501     7.08247302    -0.02888173     2.38275454     4.25023205
O       2.66697402     1.78866901     2.50786301    -1.52212243     0.06659802     0.31309826
O       3.18175002     2.97058602     7.58624198    -0.88953312     2.61286682     2.65946088
O       5.10573600     1.01890201     2.47182101     0.00988770    -0.97653311    -0.81304226
O       2.20516399     1.22499199     6.36667802     0.27595198    -1.55458288     0.58241293
O       2.54670399     4.68985899     2.21566398    -0.38971665    -0.46494587    -0.31321267
