# total energy = -19942.69801436 eV

CRYSTAL
PRIMVEC
        5.54388422     0.00000000     0.00000000
        2.52725027     5.33173157     0.00000000
        0.00000000     0.00000000    10.19651323
PRIMCOORD
24 1
Ti      3.50703750     3.15957916     3.78283366     1.83065775    -3.60068065     1.01611423
Ti      4.56409680     2.17215234     6.41367963    -1.83065775     3.60068065    -1.01611423
Ti      5.81084687     2.17215414     1.31538226    -4.09046621    -0.19840851     1.07497272
Ti      2.26028753     3.15957756     8.88113120     4.09046621     0.19840851    -1.07497272
Ti      2.24341249     0.49371346     1.31542312     1.83065775    -3.60068065    -1.01611423
Ti      5.82772184     4.83801820     8.88109033    -1.83065775     3.60068065     1.01611423
Ti      0.99666239     0.49371150     6.41363876     4.09046621     0.19840851     1.07497272
Ti      7.07447200     4.83802015     3.78287458    -4.09046621    -0.19840851    -1.07497272
O       2.64456208     1.87739330     5.20320266     1.07907003     1.78345305    -1.16471685
O       5.42657222     3.45433820     4.99331068    -1.07907003    -1.78345305     1.16471685
O       1.90719812     1.87741484     0.10497884     0.84048622    -0.94925190     0.77430446
O       6.16393626     3.45431676    10.09153423    -0.84048622     0.94925190    -0.77430446
O       4.16294719     0.78847239     0.10494571    -1.07907003    -1.78345305    -1.16471685
O       3.90818712     4.54325916    10.09156730     1.07907003     1.78345305     1.16471685
O       4.90031122     0.78845089     5.20323573    -0.84048622     0.94925190     0.77430446
O       3.17082304     4.54328067     4.99327756     0.84048622    -0.94925190    -0.77430446
O       1.73863897     3.24306141     2.75433261     0.55634991     1.24958977     1.20958776
O       6.33249527     2.08867010     7.44218073    -0.55634991    -1.24958977    -1.20958776
O       3.96338499     2.08862048     2.34395646     1.52145832     0.64369160    -0.16187286
O       4.10774931     3.24311102     7.85255666    -1.52145832    -0.64369160     0.16187286
O       0.47501393     0.57719555     2.34392389     0.55634991     1.24958977    -1.20958776
O       7.59612031     4.75453596     7.85258923    -0.55634991    -1.24958977     1.20958776
O       2.84412427     0.57724516     7.44221319    -1.52145832    -0.64369160    -0.16187286
O       5.22701003     4.75448634     2.75430004     1.52145832     0.64369160     0.16187286
