# total energy = -39032.13549632 eV

CRYSTAL
PRIMVEC
        5.93200024     0.00000000     0.00000000
        0.00000000     9.29399984     0.00000000
        0.00000000     0.00000000     9.29399984
PRIMCOORD
46 1
Ti      4.40106098     7.12006498     6.71919998     0.12306230     0.04591478     1.22393889
Ti      4.35784302     6.85059702     2.43849100    -0.43499688     0.20579374     0.44618272
Ti      4.52528100     2.12095300     7.26172398     0.67496214    -0.32932270    -0.52174927
Ti      4.23198102     2.82615498     2.08919898     1.80337037    -2.22652988     0.08485106
Ti      1.43072600     6.85190599     7.08572301     0.49533452    -0.06746783     0.72131452
Ti      1.41037300     7.15914800     2.13287298     0.35612723    -0.66482016     0.84956762
Ti      1.52725698     2.44828199     6.67182697    -1.11998529    -1.21066299     2.04656031
Ti      1.40839102     1.98343402     2.77916600    -2.22830292     1.70019402    -1.54933551
Ti      2.89249401     4.68984698     4.89298500    -0.58593380     1.39952859    -1.22792410
Ti      2.99912402     4.72585601     9.04329899    -1.46141069     0.80341501     0.00705460
Ti      2.99955800     9.25257299     4.59162898     1.01054599    -0.99381350     0.05361472
Ti      2.98990099     0.03712602     9.13643398     0.98368926    -1.12094200     1.51292199
Ti      5.83824803     4.54484701     4.59443701     1.07096694     1.03833243    -0.36062846
Ti      0.01341300     4.85174902     0.14362802     1.40595763     0.11666822    -1.02928677
Ti      0.01962401     9.16731899     4.88265599    -1.17915206     0.58770092    -1.07500743
Ti      0.07861701     0.04248298     9.28619299    -0.48155854     0.18340971     0.20925574
O       4.52988701     5.56526898     5.37302899    -1.22065636     0.78998074     1.88776326
O       4.39462502     5.72685600     0.79313600     0.14392552    -1.67359492     0.78483930
O       4.44731298     0.78940000     5.76713697     0.90432494    -0.86894963    -1.99599878
O       4.43750600     1.04122900     0.85827898     0.68057974    -0.20754672    -0.93870368
O       1.29888001     5.55153498     5.74993400     1.55651609    -2.29479964    -1.42430143
O       1.68811099     5.69980801     1.00302299    -1.17743610    -2.14113452    -1.92817176
O       1.55700399     0.97085700     5.39601603    -0.46896476     0.44860033    -0.69977329
O       1.56649701     0.94970901     0.71839098    -1.13852887     0.02696857     1.77085104
O       4.42476802     8.37751802     8.14951200     0.81069201     0.20426599     0.43947034
O       4.51250402     8.22599801     3.82248303     0.26467537     1.63520448     0.25280150
O       4.48884699     3.75174600     8.52994102     0.42351278    -1.26184571     0.57494747
O       4.39994400     3.72453502     3.75314303    -0.54585337    -0.33038174    -0.63194705
O       1.61150602     8.19065601     8.51238901    -1.44708862     0.30673606    -0.55435293
O       1.63044998     8.28859302     3.66140099    -0.50626197     2.13652196     0.29543323
O       1.38836901     3.88258502     8.37118599     0.87862341    -0.29570834     0.36429769
O       1.47712400     3.76005001     3.91073201     0.95861406    -1.98786457    -0.18133277
O       3.09445700     5.98890802     7.62767799     0.03598209    -0.27273861     0.58197610
O       2.92451400     5.90635700     3.31726602     0.87742502     0.86198271    -0.30092614
O       2.96970801     1.18106901     7.70158997    -0.74011083     1.65482457    -0.05644859
O       3.09486002     1.63714799     3.16431797     1.52206561    -1.08540266     0.09933024
O       5.84329902     6.10175702     7.88157898     0.02365339    -0.38895123     0.75582233
O       0.13338500     6.09105298     3.36534998    -1.07640842    -0.26200991    -1.64647671
O       0.23388200     1.23271999     7.77191498    -0.58012028     0.65105113     0.26295530
O       2.86992900     7.79969801     5.88969501     0.08489272     0.36239533     0.49672729
O       3.03890498     7.93265300     1.28840600     0.02089331    -0.86052129     2.21324730
O       3.15055402     3.12343099     6.26485400    -0.12894550     1.99579437    -1.49290466
O       0.21687700     7.79876798     5.99773099    -0.83756056     0.18586769     0.34113332
O       5.75974802     7.78454401     1.37866300     1.20079047     1.20220020    -0.31225417
O       5.81406500     3.04779298     6.06509499     0.37776590     0.85218346    -0.24220624
O       0.20589900     2.99473000     1.68195798    -1.32967323     1.14947303    -0.10712840
