# total energy = -18974.91267688 eV

CRYSTAL
PRIMVEC
        7.60600008     0.00000000     0.00000000
        0.00000000     7.60600008     0.00000000
       -1.89786986    -1.89786986     4.85670466
PRIMCOORD
22 1
Ti      5.99915500     5.05523302     0.28264399   -10.00628342     9.23059519     2.12568732
Ti      5.17552422     2.99705521     2.61861579   -18.30832281    -6.70857345    -2.20876407
Ti     -0.67522880     4.09687323     4.70297380     2.78825160    14.29315190     3.47907359
Ti      0.43021798     3.82240100     1.53613298     2.07047852    -1.48218367    16.95925368
Ti     -1.51170176     2.31191725     4.72919379   -38.34213210    37.80003228    67.70407322
Ti      5.22545421     1.60940222     3.86259582   -45.72360515   -39.82385092   -30.60038952
Ti     -0.48134979     2.10099524     3.91153980    75.42234805    -2.69982001   -59.61052389
Ti     -0.77842778     0.03547620     4.17860582    -1.92047799   -15.15669810     1.14883951
O       3.92698601     4.84150801     1.30378903     2.01369414     0.90682662    -0.72577693
O       5.48567701     6.28689699     1.47490098    -1.01915508    -1.27036686    -0.79626426
O       0.74948199     5.71497698     1.56283298    -0.52812793     0.79181265     0.87332282
O      -0.89101876     5.83683523     4.45330279     1.17802694     0.11473424    -0.22405475
O       6.31327399     3.94910800     2.23276202    11.63678251    18.24097042     5.33085502
O       6.13845324     0.28154024     2.47790380     1.06252163     3.01668520     0.92151071
O       1.07144920     3.80498223     4.53479482     0.69143495    -0.17693464     1.26181742
O       1.97727000     3.57281799     0.75736700     3.55737323    -0.58483157     5.73051130
O       3.54282603     2.46702900     2.37640702    -0.95661528    -1.21378663     0.26511349
O       0.89525720     2.89351824     2.77345480     1.91440401    -2.06977301     0.56849297
O       4.67268121     4.22822725     3.76261281    -0.13683159     2.74878669     3.75861329
O       6.10153800     3.38117402     1.14722802    -0.61877760    -8.02839010   -11.73911863
O       0.59491122     0.98823322     4.03558482    13.99720470   -10.59547686    -4.40074063
O       4.72574425    -0.34865875     4.45660782     1.22780840     2.66709063     0.17846934
