# total energy = -19075.49355034 eV

CRYSTAL
PRIMVEC
        7.60600008     0.00000000     0.00000000
        0.00000000     7.60600008     0.00000000
       -1.89786986    -1.89786986     4.85670466
PRIMCOORD
22 1
Ti      3.84225002     6.71941498     1.02165701    -0.08240877    -0.81596894     0.70718502
Ti      3.86956699     2.89164400     1.28025799     1.02458859     1.16616052    -0.12061332
Ti      0.00809599     6.69982199     1.13663199    -0.05188437    -1.64176773     0.16169982
Ti      0.03834402     2.70862402     1.14652199    -0.25639847     1.56766774    -0.32866604
Ti      5.76902021     2.68789223     3.56103380    -0.44433384     0.46990502     1.37280530
Ti      6.05834322    -1.06693580     3.75125979    -1.00757971    -0.05121382    -1.75770756
Ti      1.93457423     2.87620821     3.59441282     0.15847566     0.32174694     0.31720714
Ti      1.29897420    -0.71412279     3.88699582     1.96685505    -1.31605229    -1.86254973
O       3.72195501     4.84164301     0.77494902     0.32055112    -0.12503691    -0.09607728
O       3.91270701     1.02769101     0.94160498    -0.51611393    -0.41726834    -0.61473274
O       0.09724399     4.62184902     0.63280598     0.38300581    -0.10451307     0.36313812
O       7.13392598     0.88470901     0.65640501     1.26439213    -0.07518063     1.44585886
O       5.49119221     4.68009022     4.10285383     1.26337731     0.45202993    -0.94760176
O       5.51033620     0.76173520     3.98224979     1.11634435     0.75200862    -0.58353573
O       1.98114421     4.84853120     4.01957779    -0.60967486     0.97670666     0.39835942
O       2.01013223     1.04836623     4.05194682    -0.80465557    -1.04732589     0.11771157
O       3.87528020     2.85630723     3.19172179    -0.12115660     0.02588382     0.31088814
O       0.04129720     2.87662224     3.13732681     0.63020436    -0.39531369     0.33903582
O       5.76616900     6.50743801     1.81272599    -0.48816217     0.14760220     0.27726684
O       5.82169700     2.94737800     1.57275903    -0.87058974    -0.08422783     0.23012565
O       1.88853698     6.70786500     1.88690198    -0.76284993     0.51012608     0.52591909
O       2.05313100     2.84258800     1.61989702    -2.11198617    -0.31596864    -0.25571713
