# total energy = -4982.64785031 eV

CRYSTAL
PRIMVEC
        3.84202231     0.00000000     0.00000000
        0.00000000     2.57994553     0.00000000
        0.00000000    -0.00008268     5.11893992
PRIMCOORD
6 1
Ti      1.92101116     1.28993137     2.55946986     0.00000000     0.00000000     0.00000000
Ti      0.00000000     0.00000000     0.00000000     0.00000000     0.00000000     0.00000000
O       1.92101116     0.50277726     0.99760598    -0.00000000    -2.13447253    -1.46371440
O       1.92101116     2.07708553     4.12133374    -0.00000000     2.13447253     1.46371440
O       0.00000000     0.78712132     3.55707682     0.00000000     2.13462217    -1.46025550
O       0.00000000     1.79274142     1.56186286     0.00000000    -2.13462217     1.46025550
