# total energy = -19952.37306652 eV

CRYSTAL
PRIMVEC
        5.64157023     0.00000000     0.00000000
        0.00003092     6.00433676     0.00000000
        0.00000000     0.00000000    10.09717020
PRIMCOORD
24 1
Ti      2.04481619     3.55816441     3.74597820     0.02272830    -0.57997167     0.47292452
Ti      3.59678496     2.44617241     6.35119229    -0.02272830     0.57997167    -0.47292452
Ti      4.86550254     2.44617447     1.30256670     0.02371021     0.58025089    -0.47286616
Ti      0.77609861     3.55816258     8.79460391    -0.02371021    -0.58025089     0.47286616
Ti      2.04480084     0.55599615     1.30260719     0.02272830    -0.57997167    -0.47292452
Ti      3.59680031     5.44834085     8.79456342    -0.02272830     0.57997167     0.47292452
Ti      0.77608327     0.55599391     6.35115180    -0.02371021    -0.58025089    -0.47286616
Ti      4.86551788     5.44834308     3.74601869     0.02371021     0.58025089     0.47286616
O       1.78560348     2.11422910     5.15250877     0.99915960     0.90592468     0.04725638
O       3.85599767     3.89010777     4.94466172    -0.99915960    -0.90592468    -0.04725638
O       1.03523639     2.11425328     0.10395603    -0.99907707     0.90617202     0.04681209
O       4.60636482     3.89008359     9.99321417     0.99907707    -0.90617202    -0.04681209
O       3.85598232     0.88793934     0.10392327    -0.99915960    -0.90592468     0.04725638
O       1.78561883     5.11639748     9.99324694     0.99915960     0.90592468    -0.04725638
O       4.60634947     0.88791515     5.15254154     0.99907707    -0.90617202     0.04681209
O       1.03525162     5.11642172     4.94462896    -0.99907707     0.90617202    -0.04681209
O       0.20499008     3.65217800     2.72749764     0.34975295    -0.20546181     0.24054119
O       5.43661107     2.35215882     7.36967286    -0.34975295     0.20546181    -0.24054119
O       3.02577972     2.35210286     2.32111971     0.34979152     0.20559088    -0.24067206
O       2.61582143     3.65223396     7.77605061    -0.34979152    -0.20559088     0.24067206
O       0.20497474     0.65000956     2.32108746     0.34975295    -0.20546181    -0.24054119
O       5.43662642     5.35432726     7.77608285    -0.34975295     0.20546181     0.24054119
O       2.61580609     0.65006552     7.36970504    -0.34979152    -0.20559088    -0.24067206
O       3.02579506     5.35427130     2.72746539     0.34979152     0.20559088     0.24067206
