# total energy = -19958.82149460 eV

CRYSTAL
PRIMVEC
        7.60600008     0.00000000     0.00000000
        0.00000000     7.60600008     0.00000000
       -1.89786986    -1.89786986     4.85670466
PRIMCOORD
24 1
Ti      3.87951902     6.62534600     1.09987798     1.37347225     0.79823784    -1.07315366
Ti      3.74691699     2.73022700     1.25809198     0.30800850    -0.52193876    -2.04251056
Ti      0.11372199     6.78290900     1.25227097    -1.47950612    -1.34351349     0.40582102
Ti     -0.12560302     2.77992097     1.27931998     0.11047752     1.43906343     1.35784019
Ti      5.58084124     2.90974720     3.75178082     3.04908805    -0.48275951     1.43580661
Ti      5.64178621    -0.84930880     3.63848079     2.20794080     0.23638937     0.45044099
Ti      2.00940524     2.83326125     3.68933282    -3.07301681    -2.09257176    -0.31665744
Ti      2.01720225    -0.96775380     3.48386880    -1.69208038     1.58524972     1.81606108
O       3.84619101     4.57013698     0.81889301    -0.51999244     2.51156917     0.05605521
O       4.08601499     0.88728700     0.57425998    -0.61687524    -0.82128342     0.45383227
O       7.20670902     4.72033198     0.85575899     1.94337933     0.52438157    -0.12079870
O      -0.15751802     0.93961803     0.84241901     0.02476513     0.54682088    -1.24431875
O       5.80933621     4.73875322     4.23801480    -0.19117573     1.07988533    -2.23188755
O       5.54389022     0.98233522     4.23268482     0.46293578    -1.75840202    -1.62669104
O       1.75031921     4.66964823     3.89835281     0.77098928     0.65456326     0.25254413
O       2.02155822     0.88244625     4.10624184    -0.34929375    -0.17415399    -0.58078285
O       3.78718320     2.74500824     3.32617779    -0.21535954     0.52602965    -1.44158054
O       3.90242223    -0.75908979     2.97588282    -0.34941459    -1.04802395     1.07504599
O      -0.11381280     2.66158323     3.46376382    -0.13118313     0.51525878    -1.54927561
O       0.05104825    -0.75505375     3.28114682    -0.61980193    -0.73653597    -0.63151459
O       5.78812399     6.72857600     1.39112200    -1.79281367    -0.50848340     1.74681508
O       5.64693902     2.81745398     1.45856998    -0.72057198    -0.42894964     2.35007786
O       1.95869001    -0.56568201     1.54057600     0.76063904    -1.36566381     0.23387457
O       1.84018399     2.55008702     1.58640503     0.73938938     0.86483072     1.22495653
