# total energy = -19071.33549731 eV

CRYSTAL
PRIMVEC
        5.17600016     0.00000000     0.00000000
        0.00000000     5.50899976     0.00000000
        0.00000000     0.00000000     9.26300011
PRIMCOORD
22 1
Ti      1.69856700     3.42889099     3.27465900     1.67000180     0.07569356    -0.12138594
Ti      3.85932498     2.34264001     5.95184301     0.16808207    -0.08378945    -0.48724068
Ti      4.28884699     2.57776002     1.49553503    -1.04743002    -0.55666872     1.61894507
Ti      1.25070397     2.40372400     7.81712202    -0.74330131    -0.01508904     0.55055592
Ti      1.49393601     0.70688000     1.40222002     1.51043162    -0.29420553     0.82242139
Ti      3.09086600     0.00953699     7.98346698     1.22516813    -0.52005029     0.86051949
Ti      0.65843599     5.22989099     6.33075001    -0.49514992     0.02669217    -0.03696425
Ti      4.44621499     5.06381501     3.48562498    -1.02575561     0.37169012     1.79217295
O       4.03880100     3.42449898     4.37873198    -1.73850373    -0.85246885     0.30198775
O       0.49335899     2.18880400     0.47489398     1.66362135    -0.20726673    -3.17919261
O       5.14918500     3.43564303     6.87581702    -0.40314141     0.59526305    -0.64666097
O       2.92577498     1.23833001     0.19751297     0.57760137    -0.19900809    -1.28627634
O       1.38015200     4.91802397     8.13194999    -0.85972991    -0.30177897     2.35790225
O       4.31573999     0.73186902     4.99235602     0.53483825    -0.97742271    -0.35225129
O       1.03479701     4.52555199     4.52864202     0.11267375     1.12590243     2.32049963
O       0.35092998     4.07851602     2.19744002    -1.47504963    -0.41056290    -2.03031916
O       4.74673300     1.03164798     7.36979901     0.52201178     0.39443565     0.34282305
O       2.65483998     2.03050402     2.37963701    -1.20876038     0.09929990     0.63973338
O       2.55087099     3.35879702     6.87219602     1.25008239     1.08858260    -0.23551725
O       5.12199498     1.08382999     2.46651300     0.01415830     0.42011687     0.05114132
O       2.29575797     1.07549900     6.73136598    -1.41457443    -0.25775267    -2.00710594
O       2.64651401     4.90654803     2.59315501     1.16272527     0.47838709    -1.27578803
