# total energy = -4989.62036947 eV

CRYSTAL
PRIMVEC
        2.84903008     0.00000000     0.00000000
        0.22306099     4.45842646     0.00000000
       -0.00000123    -0.00005794     4.46539965
PRIMCOORD
6 1
Ti      1.53604481     2.22918411     2.23269973     0.00000000     0.00000000     0.00000000
Ti      0.00000000     0.00000000     0.00000000     0.00000000     0.00000000     0.00000000
O       1.46798602     0.86887025     0.87024056    -0.54406749     0.55876366     0.56160859
O       1.60410355     3.58949798     3.59515884     0.54406749    -0.55876366    -0.56160859
O       0.06805818     1.36029038     3.10294119     0.54385383    -0.55885108     0.56168495
O       0.15500147     3.09807805     1.36245821    -0.54385383     0.55885108    -0.56168495
