# total energy = -19945.29361066 eV

CRYSTAL
PRIMVEC
        4.74173071     0.00000000     0.00000000
        0.50343092     5.02146252     0.00000000
        0.00000000     0.00000000     8.49730808
PRIMCOORD
24 1
Ti      2.01698207     2.97571407     3.15244077     1.23734668     0.41697627    -0.42058532
Ti      3.22817971     2.04574849     5.34486760    -1.23734668    -0.41697627     0.42058532
Ti      4.29453497     2.04575020     1.09617948    -1.70060437    -0.92358842     1.72665531
Ti      0.95062683     2.97571260     7.40112904     1.70060437     0.92358842    -1.72665531
Ti      1.76526671     0.46498285     1.09621356     1.23765496     0.41733931     0.41920696
Ti      3.47989508     4.55647990     7.40109495    -1.23765496    -0.41733931    -0.41920696
Ti      0.69891140     0.46498100     5.34483356     1.70088462     0.92341281     1.72724409
Ti      4.54625034     4.55648170     3.15247485    -1.70088462    -0.92341281    -1.72724409
O       1.67805435     1.76814233     4.33611138    -2.06202164    -1.60887766    -0.45603751
O       3.56710743     3.25332028     4.16119699     2.06202164     1.60887766     0.45603751
O       1.04737402     1.76816264     0.08748455     1.95312484    -1.72791978    -0.22079562
O       4.19778782     3.25330002     8.40982362    -1.95312484     1.72791978     0.22079562
O       3.31539206     0.74258887     0.08745700     2.06113564     1.60843337    -0.45585007
O       1.92976972     4.27887374     8.40985117    -2.06113564    -1.60843337     0.45585007
O       3.94607244     0.74256861     4.33613898    -1.95485160     1.72932848    -0.22125739
O       1.29908929     4.27889400     4.16116944     1.95485160    -1.72932848     0.22125739
O       0.47849325     3.05433827     2.29533496    -1.01910854    -0.55944860    -1.46642897
O       4.76666848     1.96712434     6.20197341     1.01910854     0.55944860     1.46642897
O       2.74036390     1.96707758     1.95334625    -0.11658389    -1.43396519    -0.66229945
O       2.50479787     3.05438498     6.54396203     0.11658389     1.43396519     0.66229945
O       0.22677788     0.54360686     1.95331908    -1.01983899    -0.55991269     1.46331460
O       5.01838385     4.47785570     6.54398914     1.01983899     0.55991269    -1.46331460
O       2.25308250     0.54365362     6.20200053     0.11525514     1.43483576    -0.66141576
O       2.99207928     4.47780898     2.29530784    -0.11525514    -1.43483576     0.66141576
