# total energy = -19959.27367779 eV

CRYSTAL
PRIMVEC
        7.60600008     0.00000000     0.00000000
        0.00000000     7.60600008     0.00000000
       -1.89786986    -1.89786986     4.85670466
PRIMCOORD
24 1
Ti      3.68115597     6.73741802     1.29316198    -0.71202203    -0.03813487     1.90832207
Ti      3.75492699     3.05566201     1.25743500     0.59227697    -0.25733950    -0.42336212
Ti     -0.00366302     6.55122399     1.18817200     1.26540874    -0.95968441    -0.60636122
Ti      0.09001601     2.63686499     1.03488798    -1.14196309     2.35141407     0.40349597
Ti      5.80807820     2.88178421     3.54237284     0.46758382    -2.78118698     0.24989255
Ti      5.75619322    -1.15261076     3.50582384    -1.21425123     2.16175477     0.34637040
Ti      1.94550021     2.98903521     3.66762983    -0.82774871    -0.90327438    -0.34613309
Ti      1.73841421    -0.95774277     3.81114583     2.31685149     1.22645729    -0.72172332
O       3.56845498     4.88152699     1.06914802     0.89566443    -1.19482936    -1.82550963
O       3.76381198     0.94920799     0.91071399    -0.40162523     1.77978203     0.12170039
O       0.27399602     4.53282098     0.76077601    -1.40539199     2.05081394    -1.11889772
O       0.37089102     0.81930201     0.65078298    -1.13541680    -0.08146055     0.24469995
O       5.86636522     4.64720423     3.97438881    -0.85164610     1.27581092     1.00147205
O       5.61349824     0.84397421     3.82480580    -0.01251176    -0.46490987     1.33786117
O       1.64524525     4.88498522     4.22702279     0.08289908    -2.29448082    -0.40798280
O       2.13970625     1.13532624     4.11232182    -1.07586078    -0.13923891     0.69942645
O       3.80115422     3.04079525     3.14318380     0.10094180     0.23605513     1.29718553
O       3.55209721    -1.16679276     3.28748879     1.97647484     0.62777569    -0.21828828
O       0.02784224     3.00018021     3.16563081     0.63124771    -1.19934062     0.33419674
O      -0.02884778    -0.83003875     3.22392683    -1.13920275    -0.06933368    -0.42681614
O       5.68173401     6.54918798     1.56904097    -0.16767198    -0.08566148     0.25710758
O       5.78399402     2.90415502     1.64898600    -0.35301902    -0.54427703    -1.25497906
O       1.72709601     6.52881698     1.73013100     0.95435374     0.57201770    -0.13973977
O       1.85298198     3.00610202     1.74786902     1.15462886    -1.26872958    -0.71193796
