# total energy = -4969.80661616 eV

CRYSTAL
PRIMVEC
        4.15303804     0.00000000     0.00000000
       -0.00000674     2.76869171     0.00000000
       -2.07654349    -1.38438810     4.60086823
PRIMCOORD
6 1
Ti     -0.00017849     2.07661936     1.15021682    -0.01102901    -0.02039914    22.64149431
Ti      2.07666634    -0.69231604     3.45065078     0.01102901     0.02039914   -22.64149431
O       0.00004370     0.69216541     0.74944373     0.01053124     0.01394953   -11.62201281
O       2.07644405     0.69213786     3.85142392    -0.01053124    -0.01394953    11.62201281
O      -0.00001780    -0.69216796     3.04987774    -0.00089963    -0.00023603     1.36521669
O       2.07650550     2.07647118     1.55098995     0.00089963     0.00023603    -1.36521669
