# total energy = -19891.41143149 eV

CRYSTAL
PRIMVEC
        8.93076076     0.00000000     0.00000000
        0.00002812     3.60535634     0.00000000
        0.00000000     0.00000000    13.82259098
PRIMCOORD
24 1
Ti      3.23698802     2.13653078     5.12808269     0.15676922    -0.11182246     2.42719993
Ti      5.69380111     1.46882543     8.69450842    -0.15676922     0.11182246    -2.42719993
Ti      7.70221597     1.46882666     1.78315764     0.17372693     0.11131030    -2.42764653
Ti      1.22857316     2.13652974    12.03943359    -0.17372693    -0.11131030     2.42764653
Ti      3.23697408     0.33385267     1.78321306     0.15676922    -0.11182246    -2.42719993
Ti      5.69381505     3.27150367    12.03937818    -0.15676922     0.11182246     2.42719993
Ti      1.22855922     0.33385138     8.69445301    -0.17372693    -0.11131030    -2.42764653
Ti      7.70222991     3.27150496     5.12813810     0.17372693     0.11131030     2.42764653
O       2.82665219     1.26950723     7.05356236     1.47298683     0.70769538    -2.15652977
O       6.10413700     2.33584898     6.76902875    -1.47298683    -0.70769538     2.15652977
O       1.63880041     1.26952175     0.14231133    -1.47173136     0.70749355    -2.15605721
O       7.29198885     2.33583446    13.68027941     1.47173136    -0.70749355     2.15605721
O       6.10412307     0.53317081     0.14226649    -1.47298683    -0.70769538    -2.15652977
O       2.82666606     3.07218540    13.68032424     1.47298683     0.70769538     2.15652977
O       7.29197491     0.53315629     7.05360726     1.47173136    -0.70749355    -2.15605721
O       1.63881415     3.07219999     6.76898385    -1.47173136     0.70749355     2.15605721
O       0.32449232     2.19298209     3.73382665    -1.73003837     0.52199224     0.20944703
O       8.60629681     1.41237412    10.08876446     1.73003837    -0.52199224    -0.20944703
O       4.78988446     1.41234061     3.17751280    -1.73220735    -0.52190174    -0.20963703
O       4.14090473     2.19301567    10.64507806     1.73220735     0.52190174     0.20963703
O       0.32447839     0.39030392     3.17746865    -1.73003837     0.52199224    -0.20944703
O       8.60631074     3.21505229    10.64512220     1.73003837    -0.52199224     0.20944703
O       4.14089080     0.39033743    10.08880848     1.73220735     0.52190174    -0.20963703
O       4.78989839     3.21501878     3.73378257    -1.73220735    -0.52190174     0.20963703
