# total energy = -4897.77918009 eV

CRYSTAL
PRIMVEC
        5.37670099     0.00000000     0.00000000
       -0.00000697     2.03943802     0.00000000
       -2.68838273    -1.01981582     5.93394527
PRIMCOORD
6 1
Ti     -0.00022974     1.52963624     1.48348606    -0.05256905    -0.04046738    93.48087035
Ti      2.68854107    -0.51001429     4.45045875     0.05256905     0.04046738   -93.48087035
O       0.00005708     0.50984328     0.96659112     0.05033245     0.04106927   -87.36012510
O       2.68825410     0.50977862     4.96735374    -0.05033245    -0.04106927    87.36012510
O      -0.00002331    -0.50989945     3.93356375    -0.00098345    -0.00008922    -0.34173625
O       2.68833439     1.52952130     2.00038111     0.00098345     0.00008922     0.34173625
