# total energy = -19937.64436898 eV

CRYSTAL
PRIMVEC
        5.98546335     0.00000000     0.00000000
        0.63547838     6.33856744     0.00000000
        0.00000000     0.00000000    10.72611020
PRIMCOORD
24 1
Ti      2.54602654     3.75622923     3.97931048    -0.00052965    -1.31515446     0.74453364
Ti      4.07491537     2.58233826     6.74680009     0.00052965     1.31515446    -0.74453364
Ti      5.42097037     2.58234041     1.38370196     0.02073698     0.25488718    -0.42150552
Ti      1.19997157     3.75622738     9.34240879    -0.02073698    -0.25488718     0.42150552
Ti      2.22828748     0.58694557     1.38374499    -0.00052965    -1.31515446    -0.74453364
Ti      4.39265445     5.75162217     9.34236576     0.00052965     1.31515446     0.74453364
Ti      0.88223242     0.58694323     6.74675712    -0.02073698    -0.25488718    -0.42150552
Ti      5.73870945     5.75162445     3.97935350     0.02073698     0.25488718     0.42150552
O       2.11819975     2.23191736     5.47345207     1.51130965     1.56144773    -0.27235680
O       4.50274217     4.10665019     5.25265849    -1.51130965    -1.56144773     0.27235680
O       1.32209507     2.23194300     0.11043132    -1.06622531     0.77050360     0.38550492
O       5.29884691     4.10662461    10.61567900     1.06622531    -0.77050360    -0.38550492
O       4.18500309     0.93736628     0.11039654    -1.51130965    -1.56144773    -0.27235680
O       2.43593883     5.40120127    10.61571378     1.51130965     1.56144773     0.27235680
O       4.98110784     0.93734070     5.47348691     1.06622531    -0.77050360     0.38550492
O       1.63983402     5.40122685     5.25262372    -1.06622531     0.77050360    -0.38550492
O       0.60399968     3.85547617     2.89739003     0.40220784     0.40531348     0.78097442
O       6.01694218     2.48309138     7.82872054    -0.40220784    -0.40531348    -0.78097442
O       3.45914788     2.48303235     2.46569936     0.56902519     0.84353967     0.10433540
O       3.16179404     3.85553514     8.26041108    -0.56902519    -0.84353967    -0.10433540
O       0.28626060     0.68619227     2.46566507     0.40220784     0.40531348    -0.78097442
O       6.33468125     5.65237523     8.26044531    -0.40220784    -0.40531348     0.78097442
O       2.84405496     0.68625129     7.82875476    -0.56902519    -0.84353967     0.10433540
O       3.77688696     5.65231626     2.89735580     0.56902519     0.84353967    -0.10433540
