# total energy = -19916.24098905 eV

CRYSTAL
PRIMVEC
        5.88741871     0.00000000     0.00000000
        0.00002222     3.75959618     0.00000000
        0.00000000     0.00000000     8.99173097
PRIMCOORD
24 1
Ti      2.13391911     2.22793320     3.33586807    -1.01716710     3.45522043    -5.18112446
Ti      3.75352143     1.53166293     5.65586299     1.01716710    -3.45522043     5.18112446
Ti      5.07752718     1.53166420     1.15996154    -1.01354981    -3.45520475     5.18461474
Ti      0.80991342     2.22793208     7.83176958     1.01354981     3.45520475    -5.18461474
Ti      2.13390820     0.34813516     1.15999760    -1.01716710     3.45522043     5.18112446
Ti      3.75353235     3.41146107     7.83173356     1.01716710    -3.45522043    -5.18112446
Ti      0.80990245     0.34813380     5.65582692     1.01354981     3.45520475     5.18461474
Ti      5.07753809     3.41146244     3.33590409    -1.01354981    -3.45520475    -5.18461474
O       1.86341291     1.32381769     4.58841151     3.35635994    -3.65520965     5.48236505
O       4.02402768     2.43577840     4.40331956    -3.35635994     3.65520965    -5.48236505
O       1.08034631     1.32383287     0.09257491    -3.35578889    -3.65582594     5.48265944
O       4.80709433     2.43576326     8.89915586     3.35578889     3.65582594    -5.48265944
O       4.02401677     0.55598026     0.09254573    -3.35635994     3.65520965     5.48236505
O       1.86342383     3.20361583     8.89918504     3.35635994    -3.65520965    -5.48236505
O       4.80708337     0.55596512     4.58844064     3.35578889     3.65582594     5.48265944
O       1.08035713     3.20363101     4.40329038    -3.35578889    -3.65582594    -5.48265944
O       0.21391697     2.28679952     2.42889086     4.03548289    -0.82053291     2.72822403
O       5.67352362     1.47279656     6.56284016    -4.03548289     0.82053291    -2.72822403
O       3.15763311     1.47276161     2.06700323     4.03614418     0.82040461    -2.72847497
O       2.72980744     2.28683452     6.92472764    -4.03614418    -0.82040461     2.72847497
O       0.21390601     0.40700138     2.06697453     4.03548289    -0.82053291    -2.72822403
O       5.67353454     3.35259470     6.92475634    -4.03548289     0.82053291     2.72822403
O       2.72979652     0.40703638     6.56286881    -4.03614418    -0.82040461    -2.72847497
O       3.15764402     3.35255970     2.42886216     4.03614418     0.82040461     2.72847497
