# total energy = -19959.69758794 eV

CRYSTAL
PRIMVEC
        7.60600008     0.00000000     0.00000000
        0.00000000     7.60600008     0.00000000
       -1.89786986    -1.89786986     4.85670466
PRIMCOORD
24 1
Ti      3.88610500     6.79111803     1.11206800     0.71897198    -2.99926366     0.10296398
Ti      3.80170499     2.73646102     1.12609898    -1.19116374     2.33100310     2.05775927
Ti      0.00582502     6.60798899     1.20883701    -0.90545648     0.80344690    -1.30937411
Ti     -0.17298201     2.84088098     1.38363600     1.60319063    -0.79503450    -0.48126390
Ti      5.63441921     2.75439923     3.75318679    -0.13681154     0.75451184    -0.19532524
Ti      5.67651225    -0.91404077     3.60990083     0.94254131    -0.88961771     1.30785947
Ti      2.02559923     2.83440824     3.72067879    -0.99886778    -0.29824011    -1.36713885
Ti      2.07893823    -0.94770380     3.56808482    -0.68014368    -0.14188227    -1.64646977
O       3.98177199     4.79873599     0.74024499    -0.67904685    -0.80588944     1.41842055
O       4.01711098     0.94292999     0.64081799    -0.21182118     0.11669779     0.44555409
O       7.25636998     4.63039899     0.86810798     1.17266825     2.51506279    -0.51975101
O      -0.06471102     1.05824798     0.76302999     0.08661330    -1.89453272     0.13819428
O       5.38649422     4.78385923     3.97211684     0.98534248    -0.06162731     1.33165761
O       5.73941724     0.94456721     4.10277080    -0.04780454     0.30955065    -0.39143749
O       2.16310324     4.66781320     3.97662183    -0.75506283     3.16061715     0.07957027
O       1.76093821     0.88256722     4.06906581     0.01012244    -0.19568828    -0.31935093
O       3.73541024     2.73417921     3.15102779     1.20704391    -0.65776685     0.63256155
O       3.88126123    -0.73831080     3.06920180    -1.89167597     0.04612432     0.56179679
O      -0.14772777     2.94994922     3.25042882     0.81220228    -0.02861407     1.41574223
O      -0.13110377    -0.98981578     3.03793579     2.76677414    -0.48864836     2.10954413
O       5.77695200     6.82769798     1.64273600    -2.18413443    -0.03963383    -1.35557145
O       5.60944401     2.89150202     1.79278399    -1.22236743    -0.80159004    -1.44467641
O       1.93912003     6.73782802     1.61221300     0.19268266    -0.25748065    -0.49240758
O       1.84701699     2.71865902     1.81300301     0.40620283     0.31849527    -2.07885749
