# total energy = -19516.91456245 eV

CRYSTAL
PRIMVEC
        5.17600016     0.00000000     0.00000000
        0.00000000     5.50899976     0.00000000
        0.00000000     0.00000000     9.26300011
PRIMCOORD
23 1
Ti      1.91258602     3.16045900     3.39672902    -0.28941248    -1.18979180     2.34363108
Ti      3.36375001     2.21376402     5.81507001     0.06353044     0.79420352    -1.65253423
Ti      4.39789603     2.10515399     1.47664001     0.61641090    -1.46011846    -1.89632941
Ti      0.78637999     3.44152298     7.77493003     0.00098782    -0.06956019     0.19663470
Ti      2.03211801     0.23832900     1.37637902    -0.15523607     1.28256392    -2.38462605
Ti      3.12068599     5.27117798     7.83738098     0.48358560     0.74146143     0.96523851
Ti      0.72958001     0.51666200     5.91811701    -0.78751608     0.43860774    -1.96922458
Ti      4.52112902     4.95953401     3.29802302     0.24763718     0.09160098     3.46610057
O       1.75067101     1.86525000     4.75870400    -1.20987238     0.11061224    -0.24978354
O       3.42616102     3.62194998     4.42409199     0.85446763    -0.41929052     0.83318840
O       0.31128100     2.66568198     0.04497599    -0.40785013    -0.03768262     0.05638663
O       3.46854002     0.96120301     0.20300298    -1.11508888    -0.55907965    -0.74884230
O       1.92263298     4.58074201     9.06579702    -0.35481545     0.36673226     0.90237733
O       4.19766102     0.70828999     4.92209499    -0.15422845     0.23288495    -1.02614874
O       0.83498402     4.73299001     4.55675398     0.77666113    -1.27141690    -0.86335748
O       0.14619702     3.27778199     2.53826700     0.72506807     1.00725498     0.93018562
O       4.99880399     2.02247603     6.81492597    -0.24249163     2.21759710    -0.07201663
O       2.87809399     1.58525602     2.48441300    -1.03518565     1.40730926     0.18096382
O       2.54741700     3.59113398     6.97016700     0.01086626     0.45858059     0.05429863
O       0.20411203     0.49224301     1.89625101     0.42916459     0.28346346     0.33198971
O       4.97583199     5.12558698     7.37500601     0.15255081    -2.46964012     0.51215931
O       2.21865500     1.11189898     6.97537500     0.74626631    -0.98947065     0.92129242
O       2.81721802     4.53935701     2.39015600     0.64450047    -0.96682102    -0.83158352
