# total energy = -4984.10341279 eV

CRYSTAL
PRIMVEC
        3.44150270     0.00000000     0.00000000
        0.00000000     5.39231878     0.00000000
        0.00000000    -0.00006998     5.39231878
PRIMCOORD
6 1
Ti      1.72075129     2.69612434     2.69615933     0.00000000     0.00000000     0.00000000
Ti      0.00000000     0.00000000     0.00000000     0.00000000     0.00000000     0.00000000
O       1.72075129     1.05086986     1.05088349     0.00000000    -0.89072534    -0.89072534
O       1.72075129     4.34137882     4.34143516     0.00000000     0.89072534     0.89072534
O       0.00000000     1.64522611     3.74704392     0.00000000     0.89242587    -0.89242587
O       0.00000000     3.74702257     1.64527474     0.00000000    -0.89242587     0.89242587
