# total energy = -19073.87099955 eV

CRYSTAL
PRIMVEC
        7.60600008     0.00000000     0.00000000
        0.00000000     7.60600008     0.00000000
       -1.89786986    -1.89786986     4.85670466
PRIMCOORD
22 1
Ti      4.06396899     6.65031200     1.21582098     0.20230321    -0.43899983    -0.92890546
Ti      3.53016101     2.64323301     1.14301498     0.18373213     1.95746769     1.19184663
Ti      0.06062699     6.83283100     1.04625798    -0.05999723    -1.46881779     0.29547231
Ti     -0.17219899     2.95269200     1.09188201    -1.09691092     0.58029357    -0.45096729
Ti      5.53928923     2.89985122     3.50086079     0.23025780    -0.55038083     0.66628286
Ti     -1.11031976    -0.80741875     3.85597079    -4.09059297     0.41459105    -1.54207214
Ti      1.80651625     2.76006222     3.75920480     0.20256418    -0.06916784     0.17346751
Ti      1.57719925    -0.99147475     3.81025279     1.74381871    -0.19142744    -1.75318370
O       3.78511099     4.58805598     0.79820599    -0.08430059     1.64098997     0.09886847
O       4.06139602     0.90665002     0.88024900    -0.71925609    -1.74331118     0.81782451
O       7.30375198     4.78714198     0.62693698     0.69498487    -0.18631377     0.77448675
O       7.19552798     0.98695002     0.54206600     1.87864433    -0.05286062     1.04643680
O       5.52960121     4.79175625     4.05594481     1.64494048     0.61957618    -1.73551790
O       5.58069725     0.99728120     3.95295183     1.38755470    -0.98512625    -0.12506905
O       2.30705924     4.82738025     4.18013980    -1.18662394    -1.23834864     0.33095535
O       2.06972124     0.82153022     4.08920979    -1.08223480     0.01580098    -0.56585091
O       3.64253424     2.70155723     3.14033783    -0.23756359     0.50344713    -0.62522799
O       0.02954524     2.79404323     3.22697484    -0.33869566     0.60331832     0.27930932
O       5.99839198     6.60906698     1.90876002    -1.38568834     0.40569323     1.33220140
O       5.65897500     2.68571398     1.62343198    -0.74745982     0.97675628     0.42021046
O       1.86369999     6.74185199     1.85097502     0.53549671    -0.24435876     0.07034438
O       1.63918300     2.80231999     1.37442398     2.32502734    -0.54882146     0.22908769
