# total energy = -19074.09329013 eV

CRYSTAL
PRIMVEC
        7.60600008     0.00000000     0.00000000
        0.00000000     7.60600008     0.00000000
       -1.89786986    -1.89786986     4.85670466
PRIMCOORD
22 1
Ti      3.70548998     6.73353899     1.12278702    -0.43537072    -0.41167002     1.58663761
Ti      3.99402599     2.81837200     1.17744700    -0.04215917     1.70020019     0.78204091
Ti     -0.10049399     6.68674501     1.18414501    -0.78756467    -3.03178092    -0.88191442
Ti      0.18833498     2.63010502     1.14105300     0.18229771     1.78321523    -0.49823884
Ti      5.88496221     2.78684722     3.52231279     0.88704352     0.74837667     1.91260373
Ti      5.63435820    -1.06184379     3.62754979     1.73838726    -0.52865294     1.24033533
Ti      2.06263523     2.87467122     3.71699281     0.13382263    -0.24473157    -2.80741995
Ti      1.09219322    -0.65293779     3.87817480     0.67053393    -1.06348245    -0.29961153
O       3.80115200     4.78045800     0.61881998    -0.28188917     0.18627289     2.88306955
O       3.89602898     1.03688800     0.92969098    -0.48964415    -0.57824980     0.35475272
O       0.09499901     4.68149000     0.56637301    -0.12914347    -0.98473750     0.75801060
O       7.02841899     0.71905600     0.68559601     0.14431942     2.76445500     0.43618627
O       5.97457821     4.71110323     4.06919080     0.38978350    -0.17205932    -0.68530029
O      -1.27394380     0.66859222     3.98599483    -0.53741604     0.59561787     0.37458596
O       1.79245220     4.94746623     4.25463383    -0.34441637     0.56471911    -3.04421221
O       2.17352824     0.96292220     3.97628183    -0.55051993    -0.31992634     0.52477418
O       4.02229321     3.06188725     3.15321181    -0.82739699    -0.55318359     0.12468312
O       0.26499921     2.76638520     3.07706183    -1.25771471    -0.00396773     1.07152538
O       5.53145101     6.41516902     1.86569700    -0.44162081     0.31059838    -2.19893294
O       5.94818597     2.93345498     1.58215700    -1.09087680    -0.18879129    -0.52612915
O       1.51888201    -0.71174700     2.02040498     1.44555495    -0.36175255     0.07460367
O       1.99580798     2.83493599     1.62347098     1.62399009    -0.21046981    -1.18204943
