# total energy = -19960.06607855 eV

CRYSTAL
PRIMVEC
        5.19029096     0.00000000     0.00000000
        0.82399908     5.46223702     0.00000000
        0.00000000     0.00000000     9.31586068
PRIMCOORD
24 1
Ti      2.36953191     3.23691654     3.45611790     0.75258943    -0.97206505     0.59970592
Ti      3.64475807     2.22532032     5.85974299    -0.75258943     0.97206505    -0.59970592
Ti      4.81198893     2.22532216     1.20177529    -1.16309808    -0.45778663     0.60123213
Ti      1.20230106     3.23691491     8.11408570     1.16309808     0.45778663    -0.60123213
Ti      1.95753248     0.50579813     1.20181265     0.75258943    -0.97206505    -0.59970592
Ti      4.05675751     4.95643889     8.11404834    -0.75258943     0.97206505     0.59970592
Ti      0.79030160     0.50579613     5.85970563     1.16309808     0.45778663     0.60123213
Ti      5.22398839     4.95644089     3.45615526    -1.16309808    -0.45778663    -0.60123213
O       1.93290392     1.92334644     4.75381244     0.23192619     0.52129136    -0.44832111
O       4.08138606     3.53889042     4.56204840    -0.23192619    -0.52129136     0.44832111
O       1.24256337     1.92336852     0.09591200     0.18933328    -0.37641864     0.34049337
O       4.77172667     3.53886839     9.21994863    -0.18933328     0.37641864    -0.34049337
O       3.66938661     0.80777185     0.09588178    -0.23192619    -0.52129136    -0.44832111
O       2.34490336     4.65446501     9.21997884     0.23192619     0.52129136     0.44832111
O       4.35972723     0.80774982     4.75384271    -0.18933328     0.37641864     0.34049337
O       1.65456270     4.65448710     4.56201818     0.18933328    -0.37641864    -0.34049337
O       0.68977822     3.32244218     2.51644643    -0.18721906     0.06040372    -0.11412051
O       5.32451176     2.13979463     6.79941447     0.18721906    -0.06040372     0.11412051
O       3.10651945     2.13974382     2.14151365     0.57956801    -0.08854908    -0.38231675
O       2.90777052     3.32249298     7.17434708    -0.57956801     0.08854908     0.38231675
O       0.27777878     0.59132361     2.14148386    -0.18721906     0.06040372     0.11412051
O       5.73651120     4.87091319     7.17437682     0.18721906    -0.06040372    -0.11412051
O       2.49577108     0.59137442     6.79944415    -0.57956801     0.08854908    -0.38231675
O       3.51851889     4.87086239     2.51641669     0.57956801    -0.08854908     0.38231675
