# total energy = -19961.87657545 eV

CRYSTAL
PRIMVEC
        7.60600008     0.00000000     0.00000000
        0.00000000     7.60600008     0.00000000
       -1.89786986    -1.89786986     4.85670466
PRIMCOORD
24 1
Ti      3.85210399     6.55463898     1.22603998    -0.81622734     1.26252936    -0.13443892
Ti      3.80126201     2.80470197     1.23349100    -0.00387671    -1.28143341    -1.17165754
Ti     -0.00945597     6.68682201     1.15382898     0.77382855     0.62960169     1.37350310
Ti     -0.01012898     2.93326601     1.21010301    -0.07124375    -0.84562534     0.10446910
Ti      5.65780223     2.88716721     3.63270482     0.86544033    -0.42292066    -0.20600612
Ti      5.70215321    -0.91346879     3.63983379     0.45905470     0.21882024     0.08126206
Ti      1.91011820     2.82111224     3.62229379    -0.80436529    -0.56206599     0.24235999
Ti      1.92393825    -0.99846180     3.62792879    -0.51625842     0.75325457     0.25366745
O       3.82165698     4.61857199     0.83078002     0.13469912     1.89761008    -0.37389793
O       3.81074497     0.87512598     0.79000702     0.09440040     0.73720368     0.21140312
O      -0.05141999     4.78692402     0.79264799     0.17924812    -0.64482726    -0.35456014
O      -0.04419302     0.93276100     0.81724801     0.27464817     0.74452902    -0.46004355
O       5.58413023     4.80273821     4.07754281     0.25081378    -0.60239632    -0.68683318
O       5.64618521     0.96320224     4.06544481     0.39268010     0.50031681     0.24699852
O       1.91433220     4.78597520     4.09723884     0.36079198    -2.01791590    -0.19269937
O       1.84504924     0.92350622     4.06977581     0.21669651     0.68353420    -0.04108033
O       3.84013722     2.88433622     3.18866082    -0.78933051    -0.07939287     0.48973877
O       3.79094025    -0.74850979     3.19922282     1.01562315    -0.85322887    -0.11916142
O       0.04007121     2.89403821     3.26388580    -0.87919445     0.21607919    -0.25161236
O       0.04519221    -0.97465977     3.25941880    -1.36534627     0.08313691    -0.42342639
O       5.73221001     6.60926801     1.59344800    -0.30748528    -0.12944789     0.74605214
O       5.70511100     2.73696998     1.60454602     0.43653054     0.45137892     0.69412252
O       1.92619402     6.68120500     1.63992998    -0.29622565    -0.61061023    -0.42329450
O       1.86264000     2.85314302     1.62000302     0.39509797    -0.12812995     0.39513577
