# total energy = -4986.60865541 eV

CRYSTAL
PRIMVEC
        3.68382255     0.00000000     0.00000000
        1.57783498     3.32881140     0.00000000
       -2.63086364    -1.66442777     4.83129595
PRIMCOORD
6 1
Ti      1.18328318     2.49673667     1.20782394     0.00101199    -0.00101199     0.00000000
Ti      1.44751096    -0.83235284     3.62347171    -0.00101199     0.00101199    -0.00000000
O       0.39449701     0.83219848     0.78697857     0.00019129     0.00024168    -2.24958883
O       2.23629700     0.83218523     4.04431713    -0.00019129    -0.00024168     2.24958883
O      -0.39446381    -0.83217752     3.20262640     0.00024168     0.00019129    -2.24958883
O       3.02525776     2.49656120     1.62866930    -0.00024168    -0.00019129     2.24958883
