# total energy = -39034.66227813 eV

CRYSTAL
PRIMVEC
        5.93200024     0.00000000     0.00000000
        0.00000000     9.29399984     0.00000000
        0.00000000     0.00000000     9.29399984
PRIMCOORD
46 1
Ti      4.55286400     6.90646999     6.90956398    -0.98395795     0.76710228    -0.20206924
Ti      4.47339602     6.96582600     2.37876302     0.66812943    -0.29511004    -0.94061684
Ti      4.50098399     2.43059800     7.02009001    -1.30660169    -1.13259373    -0.43131429
Ti      4.30838601     2.43717297     2.15392699     0.67480067    -1.41834367     0.06624887
Ti      1.47750199     6.94016202     7.00775102     0.85149415     0.54894410    -1.57612642
Ti      1.53344100     7.11459799     2.35708702    -0.78672752    -0.52072495    -0.60867599
Ti      1.47694101     2.28169398     6.99777201     1.20799753    -0.17677266     0.13203160
Ti      1.29411402     2.09358300     2.52360699     0.58096334    -0.17323637    -1.36264739
Ti      2.97942201     4.71487600     4.60863102    -0.26666078    -0.12176466     0.68193909
Ti      2.89614502     4.78623000     9.01069802     0.18006342     0.08969991     1.82483729
Ti      2.96184402     9.28202202     4.65890403     0.87472459     0.06774654     0.80874388
Ti      2.95682498     9.13362601     9.17481002     0.84575981     1.58353094     0.80092721
Ti      0.04338603     4.57491000     4.53203098     0.50117915     0.91374803     0.26933575
Ti      0.02531102     4.69777702     9.21879301    -0.28634129     0.39154830     2.05089159
Ti      0.02151402     9.24340700     4.79419401    -1.17113124     0.17537604     0.71569768
Ti      0.02211199     9.26091801     9.28975600    -1.34051146     1.34542844     1.39274627
O       4.32064398     5.68665001     5.45184603     0.93994141    -0.79508901    -0.07709379
O       4.47340502     5.74773998     0.85500301     0.06755268    -1.31051799    -0.09951587
O       4.54488099     0.88830799     5.74401701    -0.14738469    -0.06544077    -1.26356886
O       4.25687802     0.75194002     0.96939901     1.13645656     1.61753148     0.51089330
O       1.50167200     5.62972102     5.50354500     0.39399728    -0.52302968     0.00009359
O       1.45448802     5.66159702     0.77450102     0.36798619    -0.84186562     0.19564457
O       1.58564301     0.88123501     5.65123001    -0.82473949     0.20081146    -0.05673475
O       1.53726700     0.88136900     0.94117698    -1.08371858     0.28311790     0.76081028
O       4.43448202     8.40120998     8.29531902     0.92154645    -0.40830830     0.85316228
O       4.47546600     8.35686101     3.96622302     0.03562933     0.18891470    -1.48460102
O       4.45545702     3.94174000     8.28884702    -0.45551403    -1.01927129     0.65566729
O       4.56927003     3.62651001     3.86611999    -1.21741677     0.14062165    -1.67919812
O       1.32780103     8.20961400     8.58884999     0.98752535    -0.32655002    -1.67486607
O       1.43335702     8.17117202     3.98536701     1.14744546     1.47174987    -0.67405942
O       1.44633398     3.84591600     8.24445900     0.54435236    -0.45558782     0.87525372
O       1.51077602     3.73580199     3.70933302    -0.55165404    -0.23358841    -0.12584141
O       3.00646001     6.06726901     7.82456902    -0.13469449     0.58389003    -0.25192989
O       2.94684099     6.04108802     3.07848500     0.46766250    -0.90953425     1.12748315
O       2.96101702     1.40115700     8.01835601    -0.79419581     0.74518645    -1.06911626
O       2.98561000     1.60148197     3.28064098     0.10085310    -0.98903896    -0.01262515
O       0.09594502     5.92558000     7.77598298    -0.44799741     0.56517214    -0.16860864
O       0.05623699     6.15090198     3.26057002    -0.88649664    -1.25780033    -0.00004937
O       5.85680802     1.54450699     8.05223801     0.78046354    -0.29642928    -0.21500652
O       3.15219500     7.92921202     6.20734402    -1.93352017     0.38629862    -0.75720867
O       2.94919001     7.90834302     1.43217902     0.28070543    -0.16068578     0.62214703
O       2.93632598     3.26531198     6.14218198    -0.14823804    -0.09939683    -0.38322333
O       0.03528602     7.85572401     6.13901100     0.53528099     0.29131458     0.09790970
O       0.02985200     7.96164498     1.49171601    -0.55980753     0.04776623     0.39127679
O       5.86419099     3.14772901     6.01448601     1.19289255     0.74351009     0.12127230
O       0.07345001     3.08582802     1.43079199    -0.95809341     0.38167115     0.15968331
