# total energy = -39040.39289420 eV

CRYSTAL
PRIMVEC
        7.60629642    -0.00000847    -0.00005503
       -0.00000847     7.60629642    -0.00005503
       -3.80314186    -3.80314186     9.70738094
PRIMCOORD
46 1
Ti      1.92041482     4.73774908     6.07166546    -0.01496768    -0.00312055     0.03437181
Ti      3.80313515     6.64268579     1.20943702    -0.00010773     0.02388710    -0.02378168
Ti      1.81794406     0.95595689     6.01752657    -0.01022322     0.00255002    -0.01413053
Ti      3.80303415     2.87189766     1.18859457     0.00008279    -0.00650901    -0.00254874
Ti     -1.92071418     4.73768763     6.07174872     0.01507027    -0.00320797     0.03432038
Ti      0.00001530     6.67511807     1.37465533    -0.00010413    -0.01203817    -0.05543660
Ti     -1.81796740     0.95588559     6.01760670     0.01051916     0.00260607    -0.01415599
Ti     -0.00009826     2.79117713     1.16494758    -0.00002340     0.01347001    -0.02121547
Ti      3.80320086     0.92856307     8.63579209    -0.00015478     0.00235667     0.01781338
Ti      5.71081146     2.85872204     3.60684812    -0.00680366     0.01626455     0.00756136
Ti      3.80319941    -2.81166491     8.49434581     0.00006273     0.00563869    -0.01086446
Ti      5.67371239    -0.95598099     3.66530331     0.01082975    -0.01671963    -0.00546822
Ti      0.00016570     0.95101505     8.42984038    -0.00015709    -0.02657802    -0.02404265
Ti      1.89573162     2.85876725     3.60683562     0.00682731     0.01623061     0.00763104
Ti      0.00008445    -2.88715436     8.49332157    -0.00005785    -0.01140567     0.00016069
Ti      1.93267619    -0.95592360     3.66530474    -0.01074901    -0.01662373    -0.00545948
O       2.00499168     2.83080140     5.64775628    -0.00253639     0.00087212    -0.02698682
O       3.80316577     4.75377097     0.75487141     0.00002391    -0.00895464    -0.00399781
O       2.05085707    -0.92477437     5.70302433     0.00232376    -0.01196258    -0.01662990
O       3.80314821     0.95437484     0.75903975     0.00005219     0.00614597    -0.00372039
O      -2.00508173     2.83076810     5.64778653     0.00239010     0.00076130    -0.02697988
O       0.00005709     4.83640429     0.81092493    -0.00000231     0.01115319     0.03999738
O      -2.05093264    -0.92479897     5.70307707    -0.00243278    -0.01184868    -0.01661345
O       0.00010863     0.86745366     0.78377819    -0.00005682     0.01522351    -0.00250734
O       5.73352657     4.75126844     4.08928921     0.00768477    -0.00849030     0.02012352
O       3.80307688    -0.95005497     8.91145993     0.00008665     0.02041328     0.01390273
O       5.65988500     0.95580891     4.04872488    -0.01284061     0.00293774    -0.01388859
O      -0.00002352     2.83694607     8.89379429    -0.00000874     0.01284241    -0.00334269
O       1.87271071     4.75130132     4.08927835    -0.00759401    -0.00845122     0.02018651
O      -0.00004179    -0.92302307     8.83029131     0.00002545    -0.01298999     0.03312713
O       1.94650438     0.95584584     4.04873717     0.01278893     0.00290072    -0.01397549
O       2.03812764     1.11624444     8.01840306    -0.00432794     0.00970206    -0.00299559
O       3.80316367     2.89223588     3.16036273     0.00011930     0.00570888     0.00590891
O       1.92062824    -2.96859058     8.09844647    -0.00978254     0.01021680    -0.01314760
O       3.80317120    -0.98928637     3.22866839    -0.00002545    -0.00746289    -0.01150518
O      -2.03819614     1.11628650     8.01830915     0.00429272     0.00968329    -0.00279042
O       0.00001778     2.82591019     3.22282627     0.00002957    -0.01474760     0.01915833
O      -1.92066391    -2.96858946     8.09846746     0.00986404     0.01027593    -0.01332500
O       0.00000955    -0.92603066     3.32504362     0.00001183     0.01067214     0.02080409
O       3.80308364     4.71204904     6.50023291     0.00003342    -0.00332161    -0.01746242
O       5.68969772     6.65746660     1.67376121    -0.01028416     0.00038541     0.00806118
O       5.71911783     2.85124204     1.59402368    -0.00916136    -0.00333678     0.02136228
O      -0.00002488     4.78152471     6.47801950    -0.00012187    -0.00755365     0.00973060
O       1.91663209     6.65746218     1.67377393     0.01022014     0.00042835     0.00808535
O      -0.00000690     0.90657175     6.44800215    -0.00006145    -0.01459847     0.02331246
O       1.88719585     2.85131371     1.59405228     0.00924672    -0.00340466     0.02135405
