# total energy = -19074.07034031 eV

CRYSTAL
PRIMVEC
        7.60600008     0.00000000     0.00000000
        0.00000000     7.60600008     0.00000000
       -1.89786986    -1.89786986     4.85670466
PRIMCOORD
22 1
Ti      3.79260102     6.83475499     1.11631798    -0.78928551    -1.57425542     1.44429074
Ti      3.86137898     3.05830800     1.21558999    -1.26211850     0.60339288    -0.28897693
Ti      0.06166402     6.53024200     1.22668700    -0.09902505     0.43397461    -0.71238045
Ti      0.14453000     2.73804099     1.17655899    -0.83150818    -1.13868365     0.46389763
Ti      5.68832121     2.97787925     3.56839582    -0.09522855    -2.21408883    -0.97787394
Ti      5.51356122    -1.17272479     3.70111284     1.33498642     0.11005508    -0.35615320
Ti      1.87402223     2.95376724     3.56798782    -0.10463494    -0.01961675     1.15898509
Ti      1.69741324    -0.74470278     3.85447179    -1.26626003     0.40212094    -2.20035244
O       3.35738798     4.77343698     0.76028203     0.99758017     1.73893567     0.00453671
O       3.66906099     1.08086401     0.79067400     1.11207503     0.17279799     2.11948813
O       0.01998702     4.48545697     0.69900399     0.14438755     1.32609323    -0.36165613
O       7.27474698     0.85820199     0.68948700    -1.00097274     0.13453405     2.34253065
O       5.97054022     4.60067622     4.10138780    -0.05458865     2.35743662     1.00460777
O      -0.43310380    -0.59793680     3.89401583     2.08553850     0.60824996    -1.66345705
O       1.74095024     4.92272423     4.12488682     0.23495264    -0.78387025    -1.19444164
O       1.84866924     1.14067024     4.02637179     0.88330873    -0.92618421    -0.00204660
O       3.80834023     3.20977224     3.21114884    -0.16813684    -0.58130376     0.65695798
O       0.03780723     2.78825324     3.07838282    -1.74668035     0.03900673     0.36542074
O       5.61400297     6.50091802     1.81819302    -0.72237870     0.11317152    -1.40118438
O       5.59992601     3.08779497     1.54457399     1.72725232    -0.65130978     0.35863277
O       1.82188298     6.82229101     1.83349101    -0.37020608    -0.33947059    -0.22953738
O       1.92407499     2.66366602     1.66715800    -0.00905774     0.18901318    -0.53128833
