# total energy = -19074.33347043 eV

CRYSTAL
PRIMVEC
        5.17600016     0.00000000     0.00000000
        0.00000000     5.50899976     0.00000000
        0.00000000     0.00000000     9.26300011
PRIMCOORD
22 1
Ti      1.90223399     3.16815398     3.40401601    -1.16713857     1.34711277    -0.75684589
Ti      3.28885301     2.23911098     5.86868403     0.45909301     1.04564028     0.88489228
Ti      4.46392502     2.27808499     1.24755098     1.39640495    -0.30471569    -1.54974638
Ti      0.66640799     3.35347900     8.05441203     0.04176836    -0.95440773     1.35734088
Ti      1.87599500     0.55178598     1.25608602     0.12563700    -0.78529387    -1.04947533
Ti      3.34959298     5.01841700     8.05069101    -1.27953027     0.36346928     2.04618236
Ti      0.74142199     0.52548899     5.84551199    -0.15980209     0.05317069    -1.08558546
Ti      4.46151499     4.94355900     3.53410201    -0.01774859    -1.06355984    -2.47819007
O       3.34651000     3.61046398     4.42864800     0.93039079    -0.98428859     2.38459931
O       0.87470899     1.89829802     9.19999700    -0.25991677    -0.22368786     1.73115011
O       4.26233399     3.65943103     9.17548599    -0.73669486     0.63249624     0.00562763
O       3.48257898     0.85752099     0.22007201     0.28535373    -0.54038695    -2.18745476
O       1.70776802     4.61589202     8.94256301     0.35729220     2.15704117     1.88336667
O       4.26575401     0.77977898     4.60125900     0.08303021     2.56599559     2.60115595
O       0.93349402     4.61332202     4.48180502     0.26782677     1.18869805     1.91679694
O       0.10757602     3.33749001     2.64888198     0.35430020    -1.29270898    -1.32937550
O       5.03961398     2.32312602     6.73721301    -1.10936252    -2.36496970    -2.53402571
O       2.82011299     2.09512100     2.19822399    -1.00460417    -0.11756502     0.15882610
O       2.27382601     3.15175203     7.19435400     2.83613147     0.33999612    -2.52020911
O       0.15741002     0.59191000     2.00967602     0.31804738     0.07155126     0.90494663
O       2.50481400     0.61120602     6.64772702    -0.49600481    -0.54191778    -0.33762248
O       2.86350600     4.94048099     2.40369802    -1.22447342    -0.59166942    -0.04635418
