# total energy = -19959.98484083 eV

CRYSTAL
PRIMVEC
        4.99460117     0.00000000     0.00000000
        0.00002738     5.31576603     0.00000000
        0.00000000     0.00000000     8.93923784
PRIMCOORD
24 1
Ti      1.81031892     3.15011803     3.31639355    -0.01660393     0.34144237    -0.34500463
Ti      3.18430962     2.16564805     5.62284455     0.01660393    -0.34144237     0.34500463
Ti      4.30753207     2.16564988     1.15318978    -0.01350704    -0.34092301     0.34282022
Ti      0.68709648     3.15011641     7.78604842     0.01350704     0.34092301    -0.34282022
Ti      1.81030533     0.49223512     1.15322563    -0.01604626     0.32915763     0.34315678
Ti      3.18432321     4.82353112     7.78601257     0.01604626    -0.32915763    -0.34315678
Ti      0.68708289     0.49223314     5.62280870     0.01431694     0.32812328     0.34539004
Ti      4.30754565     4.82353310     3.31642939    -0.01431694    -0.32812328    -0.34539004
O       1.58083244     1.87177164     4.56162474    -0.66055650    -0.59492418    -0.06656666
O       3.41379610     3.44399450     4.37761336     0.66055650     0.59492418     0.06656666
O       0.91651662     1.87179305     0.09203447     0.65952214    -0.59451178    -0.06626018
O       4.07811197     3.44397309     8.84720337    -0.65952214     0.59451178     0.06626018
O       3.41378251     0.78611143     0.09200546     0.65937328     0.59363554    -0.06589946
O       1.58084603     4.52965465     8.84723238    -0.65937328    -0.59363554     0.06589946
O       4.07809839     0.78609002     4.56165374    -0.66029605     0.59462979    -0.06594908
O       0.91653010     4.52967611     4.37758435     0.66029605    -0.59462979     0.06594908
O       0.18148204     3.23335025     2.41471121    -0.24024423     0.14816425    -0.15709086
O       4.81314650     2.08241584     6.52452689     0.24024423    -0.14816425     0.15709086
O       2.67878663     2.08236629     2.05493626    -0.24042266    -0.14878311     0.15508926
O       2.31584191     3.23339979     6.88430169     0.24042266     0.14878311    -0.15508926
O       0.18146846     0.57546718     2.05490771    -0.24064146     0.14839333     0.15518927
O       4.81316008     4.74029890     6.88433023     0.24064146    -0.14839333    -0.15518927
O       2.31582833     0.57551672     6.52455538     0.24104204     0.14830154     0.15748321
O       2.67880022     4.74024936     2.41468267    -0.24104204    -0.14830154    -0.15748321
