# total energy = -19895.75737308 eV

CRYSTAL
PRIMVEC
        8.69914609     0.00000000     0.00000000
        0.00002912     4.45780690     0.00000000
        0.00000000     0.00000000    13.14302739
PRIMCOORD
24 1
Ti      3.15303945     2.64169233     4.87596942     0.35758865    -0.44717080     2.80652778
Ti      5.54613595     1.81611477     8.26705810    -0.35758865     0.44717080    -2.80652778
Ti      7.50246359     1.81611636     1.69549183     0.34429398     0.44888238    -2.80837409
Ti      1.19671188     2.64169094    11.44753589    -0.34429398    -0.44888238     2.80837409
Ti      3.15302496     0.41278894     1.69554454     0.35758865    -0.44717080    -2.80652778
Ti      5.54615051     4.04501829    11.44748318    -0.35758865     0.44717080     2.80652778
Ti      1.19669732     0.41278723     8.26700540    -0.34429398    -0.44888238    -2.80837409
Ti      7.50247808     4.04502001     4.87602213     0.34429398     0.44888238     2.80837409
O       2.75334502     1.56966966     6.70678629     0.92521722     1.29263956    -2.38376318
O       5.94583045     2.88813744     6.43624124    -0.92521722    -1.29263956     2.38376318
O       1.59629962     1.56968759     0.13531482    -0.92567461     1.29320238    -2.38546757
O       7.10287592     2.88811951    13.00771231     0.92567461    -1.29320238     2.38546757
O       5.94581589     0.65923399     0.13527220    -0.92521722    -1.29263956    -2.38376318
O       2.75335951     3.79857311    13.00775500     0.92521722     1.29263956     2.38376318
O       7.10286142     0.65921605     6.70682891     0.92567461    -1.29320238    -2.38546757
O       1.59631392     3.79859111     6.43619861    -0.92567461     1.29320238     2.38546757
O       0.31607793     2.71149090     3.55025958    -2.30203370     0.72712778     0.09646191
O       8.38309747     1.74631627     9.59276795     2.30203370    -0.72712778    -0.09646191
O       4.66566187     1.74627465     3.02129595    -2.30126262    -0.72740803    -0.09647065
O       4.03351354     2.71153251    10.12173137     2.30126262     0.72740803     0.09647065
O       0.31606344     0.48258738     3.02125399    -2.30203370     0.72712778    -0.09646191
O       8.38311203     3.97521972    10.12177334     2.30203370    -0.72712778     0.09646191
O       4.03349905     0.48262900     9.59280985     2.30126262     0.72740803    -0.09647065
O       4.66567643     3.97517810     3.55021761    -2.30126262    -0.72740803     0.09647065
