# total energy = -19518.06906077 eV

CRYSTAL
PRIMVEC
        7.60600008     0.00000000     0.00000000
        0.00000000     7.60600008     0.00000000
       -1.89786986    -1.89786986     4.85670466
PRIMCOORD
23 1
Ti      3.79209799     6.75154001     1.23993998     0.79997719    -0.60806021    -0.99452158
Ti      3.73488398     2.87065799     1.35645899    -0.38607391     0.55600512     0.94052891
Ti      0.02456298     6.64903600     1.07950698    -0.78500411    -0.31585397     0.27432190
Ti     -0.10606300     2.78082999     1.15439297     0.49308969     0.58147396     0.18869899
Ti      5.81618324     2.77457422     3.65690680    -2.03428637    -0.60432440     0.81308545
Ti      5.73067920    -1.01376677     3.49711083     0.44553223     0.81202718     0.74670854
Ti      1.89573522     2.85010422     3.73702683     2.09273220     0.01726059    -0.39107034
Ti      1.89321824    -0.91351578     3.61089780    -0.19959713    -0.01320493     0.55718500
O       3.99757000     4.80136002     1.00505900    -1.30003457    -0.08441963    -0.73687690
O       3.69149800     1.04350198     0.76658802     0.13856991    -1.10375263    -0.21266322
O      -0.19236001     4.65780799     0.77060601     1.02620196     1.29360707     0.57543136
O       0.04781201     0.96191300     0.68157501     0.11186977    -1.14889067    -0.17030299
O       5.76628225     4.67147823     3.95925783     0.28343492     0.83720138     0.34125571
O       5.56965723     0.92994922     4.05728680     1.21358428    -0.77384963    -0.77890519
O       2.07712421     4.71000122     4.02559184    -0.98714072     1.72437679     0.52134227
O       1.90307422     1.00815024     4.11509682    -0.84046180    -0.99657641     0.09018765
O       3.80421720     2.70586923     3.45082480    -0.99928095     0.59826250    -1.90121939
O       3.87099720    -0.79630577     3.12041081    -0.86509837    -0.50359856     0.58226741
O      -0.04716679    -1.07139777     3.11930182     1.32723377     0.34014139     0.46480446
O       5.80480598     6.88167999     1.46468299    -0.98818407    -0.36867268     0.72142842
O       5.60936802     2.81998599     1.81430600     1.94780266    -0.46972170    -1.41913866
O       1.89747499     6.69554200     1.67968199     0.08129471    -0.10746110    -0.80656205
O       1.81113501     2.83510300     1.70700399    -0.57616181     0.33803000     0.59401427
