# total energy = -19518.42844956 eV

CRYSTAL
PRIMVEC
        5.93400000     0.00000000     0.00000000
        0.00000000     9.29699974     0.00000000
        0.00000000     0.00000000     4.64899994
PRIMCOORD
23 1
Ti      4.51869698     7.10270500     2.26393802     0.48809403    -0.56664409     0.11943987
Ti      4.45125900     2.27828899     2.33607699     0.23285153    -0.43684293     0.54031213
Ti      1.45945302     7.04784599     2.23827800    -0.65906269     0.25314988     0.16980369
Ti      1.47168099     2.32496300     2.31123398    -0.44885102    -1.02119525     0.27478752
Ti      2.95865599     4.46361899     0.07576702     0.62293173    -0.05991187     0.24783978
Ti      3.01188201     9.29412599     0.00850600    -0.75206107     0.81891363    -0.17896042
Ti      0.00473598     4.73651602     0.05504401    -0.41078170     0.05715513    -0.75761079
Ti      0.01566201     0.01509399     4.59706601     0.46412929     0.46801911     0.42039558
O       4.46695397     5.64688600     0.88831397    -0.41340912    -0.53998406    -0.03790707
O       4.41829200     0.89465299     0.94407698    -0.18467212    -0.28743401    -0.33809916
O       1.51557899     5.60549798     0.92740901     0.31518985    -0.15824863     0.00379932
O       1.43857899     0.89950602     0.98950298     0.18456311    -0.32652894    -0.63363395
O       4.37513299     8.33343100     3.72006400     0.15069216    -0.14549724     0.44617655
O       4.39763303     3.78525202     3.62822401    -0.05540241     0.45163449     0.91949934
O       1.39807402     8.37569998     3.72867302     0.88548414    -0.60219938     0.07243237
O       1.55227902     3.69130999     3.78678499    -0.56806154     0.42499245    -0.37810091
O       2.97674898     1.41770200     3.32987600    -0.24503959    -0.03879925    -0.40057545
O       5.92730501     6.00274198     3.26241802     0.13984261     0.62729593    -0.66789520
O       5.89299400     1.23731299     3.21622402    -0.06201555     1.65310605    -0.45197362
O       2.97335399     7.90791798     1.42199701    -0.35120614    -0.90804018     0.71780985
O       2.93371602     3.13657400     1.36938102     0.29061241     0.40218753     0.18571856
O       5.92473501     7.97506798     1.47288698     0.11436143    -0.59163548    -0.06841734
O       5.89937599     3.17686302     1.43277101     0.26181065     0.52650736    -0.20484115
