# total energy = -19937.11455045 eV

CRYSTAL
PRIMVEC
        6.54732667     0.00000000     0.00000000
        0.00003044     5.70136564     0.00000000
        0.00000000     0.00000000    10.76058345
PRIMCOORD
24 1
Ti      2.37310904     3.37862388     3.99209985     0.31701277    -0.64206023     0.65622985
Ti      4.17424814     2.32274151     6.76848402    -0.31701277     0.64206023    -0.65622985
Ti      5.64665894     2.32274336     1.38814909     0.31859220     0.64220910    -0.65606478
Ti      0.90069824     3.37862222     9.37243490    -0.31859220    -0.64220910     0.65606478
Ti      2.37309406     0.52794118     1.38819224     0.31701277    -0.64206023    -0.65622985
Ti      4.17426312     5.17342440     9.37239175    -0.31701277     0.64206023     0.65622985
Ti      0.90068326     0.52793910     6.76844088    -0.31859220    -0.64220910    -0.65606478
Ti      5.64667392     5.17342642     3.99214299     0.31859220     0.64220910     0.65606478
O       2.07228097     2.00754768     5.49104353     0.95918921     1.19528136    -0.63396820
O       4.47507621     3.69381772     5.26954034    -0.95918921    -1.19528136     0.63396820
O       1.20144207     2.00757072     0.11078625    -0.95876472     1.19558655    -0.63501978
O       5.34591517     3.69379474    10.64979731     0.95876472    -1.19558655     0.63501978
O       4.47506123     0.84313484     0.11075132    -0.95918921    -1.19528136    -0.63396820
O       2.07229595     4.85823056    10.64983225     0.95918921     1.19528136     0.63396820
O       5.34590013     0.84311186     5.49107846     0.95876472    -1.19558655    -0.63501978
O       1.20145693     4.85825360     5.26950541    -0.95876472     1.19558655     0.63501978
O       0.23789792     3.46789380     2.90670215    -0.69277063     0.03429750     0.08360408
O       6.30945926     2.23347160     7.85388172     0.69277063    -0.03429750    -0.08360408
O       3.51156781     2.23341861     2.47362402    -0.69226078    -0.03398768    -0.08369432
O       3.03578937     3.46794679     8.28695967     0.69226078     0.03398768     0.08369432
O       0.23788288     0.61721092     2.47358964    -0.69277063     0.03429750    -0.08360408
O       6.30947430     5.08415448     8.28699405     0.69277063    -0.03429750     0.08360408
O       3.03577433     0.61726391     7.85391605     0.69226078     0.03398768    -0.08369432
O       3.51158285     5.08410149     2.90666776    -0.69226078    -0.03398768     0.08369432
