# total energy = -4989.85834850 eV

CRYSTAL
PRIMVEC
        3.94731272     0.00000000     0.00000000
        0.58877633     3.90315516     0.00000000
       -2.26808009    -1.95160818     5.05195849
PRIMCOORD
6 1
Ti      0.44143870     2.92751556     1.26298935     0.00015684    -0.00015684     0.00000000
Ti      1.82657066    -0.97596823     3.78896859    -0.00015684     0.00015684     0.00000000
O       0.14723560     0.97578295     0.82292262    -0.00048517    -0.00085001    -0.65750151
O       2.12077359     0.97576422     4.22903532     0.00048517     0.00085001     0.65750151
O      -0.14721145    -0.97576217     3.34890187    -0.00085001    -0.00048517    -0.65750151
O       2.41522058     2.92730935     1.70305607     0.00085001     0.00048517     0.65750151
