# total energy = -19888.49947074 eV

CRYSTAL
PRIMVEC
        9.05756715     0.00000000     0.00000000
        0.00002966     4.13142438     0.00000000
        0.00000000     0.00000000    13.78490927
PRIMCOORD
24 1
Ti      3.28294988     2.44827828     5.11410302     0.26546650    -0.35038004     2.77243134
Ti      5.77464653     1.68314617     8.67080644    -0.26546650     0.35038004    -2.77243134
Ti      7.81157843     1.68314757     1.77829658     0.26474736     0.35068600    -2.77355774
Ti      1.24601799     2.44827700    12.00661302    -0.26474736    -0.35068600     2.77355774
Ti      3.28293525     0.38256615     1.77835188     0.26546650    -0.35038004    -2.77243134
Ti      5.77466117     3.74885835    12.00655773    -0.26546650     0.35038004     2.77243134
Ti      1.24600335     0.38256462     8.67075115    -0.26474736    -0.35068600    -2.77355774
Ti      7.81159306     3.74885989     5.11415832     0.26474736     0.35068600     2.77355774
O       2.86678753     1.45474474     7.03433374     1.00814458     1.07866534    -2.47478078
O       6.19080888     2.67667963     6.75057573    -1.00814458    -1.07866534     2.47478078
O       1.66206968     1.45476141     0.14192335    -1.00740693     1.07856686    -2.47489134
O       7.39552680     2.67666304    13.64298572     1.00740693    -1.07856686     2.47489134
O       6.19079432     0.61096745     0.14187864    -1.00814458    -1.07866534    -2.47478078
O       2.86680209     3.52045700    13.64303043     1.00814458     1.07866534     2.47478078
O       7.39551223     0.61095078     7.03437845     1.00740693    -1.07856686    -2.47489134
O       1.66208411     3.52047366     6.75053102    -1.00740693     1.07856686     2.47489134
O       0.32910027     2.51296649     3.72364793    -2.14707685     0.64684711    -0.00796837
O       8.72849615     1.61845789    10.06126154     2.14707685    -0.64684711     0.00796837
O       4.85789536     1.61841940     3.16885063    -2.14707557    -0.64713174     0.00755647
O       4.19970105     2.51300504    10.61605864     2.14707557     0.64713174    -0.00755647
O       0.32908570     0.44725430     3.16880664    -2.14707685     0.64684711     0.00796837
O       8.72851071     3.68417014    10.61610263     2.14707685    -0.64684711    -0.00796837
O       4.19968648     0.44729279    10.06130546     2.14707557     0.64713174     0.00755647
O       4.85790993     3.68413165     3.72360394    -2.14707557    -0.64713174    -0.00755647
