# total energy = -19074.12102548 eV

CRYSTAL
PRIMVEC
        5.17600016     0.00000000     0.00000000
        0.00000000     5.50899976     0.00000000
        0.00000000     0.00000000     9.26300011
PRIMCOORD
22 1
Ti      1.89030999     3.53524498     3.36854298     1.32245614    -0.83771509    -0.54625524
Ti      3.47955701     2.14140099     5.95790802     1.24082590     0.95219555    -1.86520877
Ti      4.46947302     2.20832800     1.28570302    -0.78474109     0.46919848    -1.70883113
Ti      0.62120699     3.21769799     8.05320302     0.44285880     0.06842171     1.48658566
Ti      1.84002301     0.53101799     1.31253998     0.17742907     1.05436815    -2.01912123
Ti      3.15721800     5.04072499     8.02250100     0.88504783     0.33604665     2.22422103
Ti      0.70982101     0.13087998     5.96885601    -1.18241427     1.32585643    -0.38094018
Ti      4.48310399     4.96208301     3.31270398    -0.80464914    -0.57574863     2.00561162
O       3.65601900     3.33872501     4.32487798    -0.89427732     0.05006505     1.51768034
O       0.90219699     1.91828600     0.10659101    -0.35311261    -0.26539194     0.44874431
O       4.27610101     3.62422402     9.08438199    -0.29177532     0.40264056    -0.61717220
O       3.47024698     0.87447498     0.24447798     0.03417794    -0.18057764    -1.05275169
O       1.69015599     4.67189300     9.20778702    -0.53583455     0.30864717    -0.25621412
O       4.29944498     0.79891001     4.76833598    -0.18512438    -0.48488041     0.96173923
O       1.12740599     5.06412500     4.25759600     0.19835477    -1.43654092     1.19898864
O       0.29289903     3.68836898     2.28584701    -0.23082961    -1.60152610     0.37698634
O       5.10188698     1.78608202     6.90795602    -0.37607463     0.01579738    -0.33348326
O       2.62048998     2.17866301     2.09479799     0.39772590     0.01564748     0.95403826
O       2.32201803     3.78965202     7.04998302    -1.38635965    -2.70208439    -2.00151559
O       0.04409401     0.67361301     2.18332199     0.95806204     1.83724621    -0.91421597
O       2.32636400     0.75797502     6.64146601     0.90774605     0.93302154     0.55231044
O       2.80757101     4.85038798     2.40664400     0.46050737     0.31531352    -0.03119675
