# total energy = -19949.38935014 eV

CRYSTAL
PRIMVEC
        5.32326125     0.00000000     0.00000000
        0.00002475     4.63545815     0.00000000
        0.00000000     0.00000000     8.74882219
PRIMCOORD
24 1
Ti      1.92944083     2.74696811     3.24575074    -0.55183479     1.70719411    -2.91908223
Ti      3.39384523     1.88848984     5.50307179     0.55183479    -1.70719411     2.91908223
Ti      4.59097922     1.88849134     1.12862557    -0.54577753    -1.70712083     2.91187440
Ti      0.73230683     2.74696676     7.62019707     0.54577753     1.70712083    -2.91187440
Ti      1.92942865     0.42923914     1.12866065    -0.55145375     1.70705552     2.91006151
Ti      3.39385741     4.20621897     7.62016199     0.55145375    -1.70705552    -2.91006151
Ti      0.73229465     0.42923744     5.50303671     0.54600173     1.70716017     2.92124633
Ti      4.59099140     4.20622061     3.24578582    -0.54600173    -1.70716017    -2.92124633
O       1.68485453     1.63222355     4.46445713     0.12749000    -1.91974857     1.73273185
O       3.63843153     3.00323441     4.28436541    -0.12749000     1.91974857    -1.73273185
O       0.97682464     1.63224228     0.09007404    -0.12886914    -1.92028413     1.73361400
O       4.34646147     3.00321572     8.65874825     0.12886914     1.92028413    -1.73361400
O       3.63841935     0.68550528     0.09004564    -0.12870742     1.91964213     1.73314992
O       1.68486671     3.94995267     8.65877665     0.12870742    -1.91964213    -1.73314992
O       4.34644924     0.68548660     4.46448553     0.12731542     1.92066980     1.73312138
O       0.97683672     3.94997140     4.28433701    -0.12731542    -1.92066980    -1.73312138
O       0.19342136     2.81954844     2.36327522     1.39392050    -0.50092230     0.58213165
O       5.12986470     1.81590951     6.38554731    -1.39392050     0.50092230    -0.58213165
O       2.85505731     1.81586643     2.01116388     1.39308926     0.50159439    -0.58005009
O       2.46822875     2.81959152     6.73765851    -1.39308926    -0.50159439     0.58005009
O       0.19340913     0.50181931     2.01113592     1.39300673    -0.50167075    -0.58014625
O       5.12987693     4.13363864     6.73768647    -1.39300673     0.50167075     0.58014625
O       2.46821652     0.50186239     6.38557522    -1.39406396    -0.50079272    -0.58197276
O       2.85506954     4.13359556     2.36324727     1.39406396     0.50079272     0.58197276
