# total energy = -19954.27222006 eV

CRYSTAL
PRIMVEC
        6.04139706     0.00000000     0.00000000
        0.00002552     4.75251517     0.00000000
        0.00000000     0.00000000     9.61883479
PRIMCOORD
24 1
Ti      2.18973100     2.81633613     3.56851910     0.07609568     0.67123249    -1.13643213
Ti      3.85169163     1.93617921     6.05031574    -0.07609568    -0.67123249     1.13643213
Ti      5.21032519     1.93618086     1.24085989     0.07820527    -0.67179248     1.13872890
Ti      0.83109744     2.81633469     8.37797507    -0.07820527     0.67179248    -1.13872890
Ti      2.18971835     0.44007865     1.24089845     0.07659551     0.67255250     1.13738550
Ti      3.85170429     4.31243685     8.37793650    -0.07659551    -0.67255250    -1.13738550
Ti      0.83108479     0.44007683     6.05027718    -0.07786486     0.67251445     1.13747446
Ti      5.21033785     4.31243866     3.56855767     0.07786486    -0.67251445    -1.13747446
O       1.91214933     1.67344142     4.90841777     0.90824484    -0.30108118     0.65392485
O       4.12927335     3.07907392     4.71041708    -0.90824484     0.30108118    -0.65392485
O       1.10860255     1.67346059     0.09903131    -0.90802116    -0.30157637     0.65383846
O       4.93282019     3.07905480     9.51980327     0.90802116     0.30157637    -0.65383846
O       4.12926070     0.70281628     0.09900011    -0.90808338     0.30121719     0.65396599
O       1.91216199     4.04969906     9.51983447     0.90808338    -0.30121719    -0.65396599
O       4.93280754     0.70279716     4.90844898     0.90864619     0.30107938     0.65362917
O       1.10861510     4.04971823     4.71038587    -0.90864619    -0.30107938    -0.65362917
O       0.21951346     2.89074913     2.59828725    -0.02113885    -0.15262023     0.52079411
O       5.82190922     1.86176621     7.02054760     0.02113885     0.15262023    -0.52079411
O       3.24021850     1.86172188     2.21116076    -0.01980367     0.15255415    -0.52027577
O       2.80120418     2.89079351     7.40767392     0.01980367    -0.15255415     0.52027577
O       0.21950081     0.51449154     2.21113004    -0.02060149    -0.15218391    -0.52072983
O       5.82192188     4.23802385     7.40770464     0.02060149     0.15218391     0.52072983
O       2.80119153     0.51453587     7.02057827     0.02031121    -0.15272230    -0.52095583
O       3.24023116     4.23797947     2.59825652    -0.02031121     0.15272230     0.52095583
