# total energy = -19518.33230082 eV

CRYSTAL
PRIMVEC
        7.60600008     0.00000000     0.00000000
        0.00000000     7.60600008     0.00000000
       -1.89786986    -1.89786986     4.85670466
PRIMCOORD
23 1
Ti      3.80245599     6.71066297     1.20369298     0.45349777    -0.71222129     1.39943346
Ti      3.84358598     2.91281098     1.16101399     1.09901331     0.40608507     2.15458448
Ti      0.03856199     6.60406302     1.19001798    -0.87521387    -0.86556323     0.47094683
Ti      0.05311400     2.77864100     1.06183199    -2.28339988     0.74736160    -1.00866574
Ti      5.68415224     2.88391722     3.62694981    -1.29961445    -1.66942382     0.29807427
Ti      5.71869821    -1.04251379     3.64907079    -1.17888183     1.45339425    -1.28084617
Ti      2.04478624     2.93277324     3.63941082     1.15155254    -0.50091484     1.74174460
Ti      1.80860825    -0.84579675     3.70206684     1.06310656    -0.12145253    -0.58994807
O       3.73936399     4.69977598     0.99047402    -0.13732833     1.75730673    -0.32160964
O       3.59953901     1.10510398     0.79492901     0.14312257    -2.43621294    -0.68772150
O      -0.21848300     4.70371200     0.75258202     1.30248663     0.57686835    -0.35037747
O      -0.09783900     0.85549202     0.86296802     0.31294194     0.24193344    -0.99861452
O       5.66799525     4.74543022     3.85854381     0.34507611    -0.72936053     1.39775607
O       5.91826322     0.94357622     4.00282679     0.39986505    -0.16478772     0.51988471
O       1.97853521     4.74859423     4.12609281    -0.33782071     0.95657466    -0.28587027
O       1.74286723     1.12805323     4.13023383    -0.51302809    -1.70909698    -0.84472983
O       3.82903921     2.53047624     3.26983280     0.02251336     1.18306810    -0.42142325
O       3.82742120    -0.73655277     3.21082879    -1.09024070    -0.13440344     0.26871612
O      -0.04064875    -0.98344475     3.18457583     1.16537119     0.00123979     0.15744259
O       5.68043499     6.47699402     1.62980201    -0.34183858     0.86225910    -0.13602992
O       5.83307997     2.87463100     1.70731398    -0.28971278    -0.44487172    -0.56493354
O       1.86468601     6.45614401     1.59613501     0.09880110     0.71787130     0.29946575
O       1.65096999     2.75286800     1.91389600     0.78973160     0.58434692    -1.21727922
