# total energy = -4928.46147086 eV

CRYSTAL
PRIMVEC
        4.77485268     0.00000000     0.00000000
       -0.00000660     2.29900300     0.00000000
       -2.38745309    -1.14956573     5.14405322
PRIMCOORD
6 1
Ti     -0.00020399     1.72432848     1.28601303    -0.03798009    -0.03111267    58.52316050
Ti      2.38759693    -0.57489136     3.85803955     0.03798009     0.03111267   -58.52316050
O       0.00005081     0.57473972     0.83792411     0.03833362     0.03114764   -48.11519298
O       2.38734198     0.57469730     4.30612852    -0.03833362    -0.03114764    48.11519298
O      -0.00001950    -0.57476586     3.40995062    -0.00096288    -0.00066232    -0.07102315
O       2.38741225     1.72420288     1.73410201     0.00096288     0.00066232     0.07102315
