# total energy = -19517.32897692 eV

CRYSTAL
PRIMVEC
        7.60600008     0.00000000     0.00000000
        0.00000000     7.60600008     0.00000000
       -1.89786986    -1.89786986     4.85670466
PRIMCOORD
23 1
Ti      3.78669202     6.78047701     1.26484200     0.15882816     0.38604486     0.61464764
Ti      3.71748002     2.98435802     1.18344798     1.11904838    -0.20011855     0.21742722
Ti     -0.08560998     6.55817102     1.21844200    -0.03690229    -0.46297512    -0.61463478
Ti     -0.01786402     2.73931101     1.17151101    -0.46169805     1.42118346    -0.76687423
Ti      5.71204121     2.71156022     3.55707179    -0.63031569    -1.44445195     0.17807056
Ti      5.77985623    -1.22492378     3.61447382    -2.36858621     1.92969103     0.84019877
Ti      2.04827024     2.99271225     3.66615782     1.00913625    -0.90998265    -0.23695296
Ti      1.86272720    -0.95331578     3.66573379     1.30251877     1.32307064     0.15194043
O       4.24822602     4.72201201     0.64026399    -0.84737292     1.64538014     2.53199659
O       3.73690199     1.03610498     0.81121602    -0.78970229     0.08863881     0.04413429
O       7.33078299     4.65199398     0.69409502     0.75760231     1.67684762     1.35271007
O       0.06023598     0.94218602     0.73760202     0.47549665    -2.10258492    -0.15516202
O       5.59845421     4.54456824     4.02303379     1.01432731     2.54534191     0.54890682
O       5.66821623     0.90922124     4.08520582     0.87890932    -0.43468577    -0.89112437
O       2.03559322     4.84780422     4.19587282    -0.83624647    -0.63708360    -0.65584007
O       1.77857320     1.06533022     4.10367681    -0.70553642    -0.77671795    -1.41421499
O       3.92389524     3.00160724     3.21357882    -2.07511062    -0.63147577    -1.15968674
O       3.71072322    -0.90253879     3.31578882     0.27421314    -0.41633683    -0.60176846
O      -0.07446577    -1.21024880     3.27401779     1.29540427     0.08330763    -0.92270987
O       5.61557400    -0.53791000     1.72252899     1.48867571    -1.64801603     0.20918220
O       5.74091598     2.67278502     1.52728799     0.71704520    -0.00243381     1.21982641
O       1.87939301     6.69360002     1.62548101    -0.98424514    -0.50988954     0.09797809
O       1.89777001     3.29414600     1.73937900    -0.75548989    -0.92275307    -0.58805059
