# total energy = -4986.82875642 eV

CRYSTAL
PRIMVEC
        3.56017533     0.00000000     0.00000000
        0.00000000     3.34695636     0.00000000
        0.00000000    -0.00006592     4.76011565
PRIMCOORD
6 1
Ti      1.78008751     1.67344532     2.38005793     0.00000000     0.00000000     0.00000000
Ti      0.00000000     0.00000000     0.00000000     0.00000000     0.00000000     0.00000000
O       1.78008751     0.65225969     0.92767648     0.00000000    -1.35680301    -0.94278968
O       1.78008751     2.69463095     3.83243942     0.00000000     1.35680301     0.94278968
O       0.00000000     1.02115931     3.30773534     0.00000000     1.35660118    -0.94250532
O       0.00000000     2.32573134     1.45238052     0.00000000    -1.35660118     0.94250532
