# total energy = -19516.58674568 eV

CRYSTAL
PRIMVEC
        5.17600016     0.00000000     0.00000000
        0.00000000     5.50899976     0.00000000
        0.00000000     0.00000000     9.26300011
PRIMCOORD
23 1
Ti      2.00561199     3.23935801     3.37664997    -1.63327898    -1.19079119     1.91007325
Ti      3.33729199     2.22679798     5.91966401    -0.25996279     1.11263142    -2.34560054
Ti      4.21756200     2.16022600     1.46627401     1.20143144    -0.39248136     0.80491500
Ti      0.81309598     3.37496597     7.88698299    -0.19291894     1.34544233    -0.36566808
Ti      1.87532803     0.02243500     1.42415801    -0.77914071     1.23561762    -0.91824824
Ti      3.39129199     5.28870100     7.94862500     0.08742011    -0.93026558     1.21155774
Ti      0.69581099     0.57499701     5.76155701     0.47302685     0.78741015    -2.82264320
Ti      4.56276898     4.82319599     3.38726897     1.55384394     0.56869223     2.16786577
O       1.51435902     2.11092001     4.80189100     1.37894047    -1.25875190     1.07943718
O       3.45292500     3.58575299     4.48124700     1.70893372     0.09189975     1.66875121
O       4.90849799     3.14619101     0.11877902     0.83281379     0.91276124    -1.25176929
O       3.51213898     1.02560398     0.04764701     0.26943011    -1.14267349    -0.43555841
O       1.72396597     4.87842998     8.85970597    -0.13506884    -0.14300121     2.32219527
O       4.30555899     0.86181601     4.78642601    -0.43608163    -0.98664989    -0.52896096
O       1.16694400     4.83545999     4.39032202    -0.66935790     0.39668331     0.22646876
O       0.24069998     3.17350301     2.82731102    -1.81825783    -0.22477929    -2.03985358
O       5.03070899     2.18531498     6.74742598     0.38961355    -0.22205238     1.13073868
O       2.61516301     1.59235001     2.19769497    -1.68803732     1.06338629     1.06525600
O       2.62972401     3.50744502     7.11542002    -0.34978355    -0.55717883     0.69422896
O       5.13472899     0.66714201     2.16646002     1.76543707    -0.93015399    -1.25080718
O       5.10815202     4.86923902     7.03052797    -0.48829741    -0.63603357     1.11557148
O       2.51215300     0.70532099     6.76560401    -1.21679328     0.85009161    -0.90478285
O       3.09090601     4.32354101     2.25204301     0.00608837     0.25019671    -2.53316747
