# total energy = -4989.09455332 eV

CRYSTAL
PRIMVEC
        3.59846451     0.00000000     0.00000000
        0.35894073     3.58051790     0.00000000
       -1.97873454    -1.79028783     4.59820715
PRIMCOORD
6 1
Ti      0.26906766     2.68552463     1.14955156     0.00201343    -0.00215664    -0.00074408
Ti      1.70960273    -0.89529484     3.44865504    -0.00201343     0.00215664     0.00074408
O       0.08977312     0.89512381     0.74901029     0.00018126     0.00120353     0.96849378
O       1.88889717     0.89510588     3.84919641    -0.00018126    -0.00120353    -0.96849378
O      -0.08975320    -0.89510579     3.04811377     0.00113900     0.00013293     0.96845033
O       2.06842343     2.68533544     1.55009293    -0.00113900    -0.00013293    -0.96845033
