# total energy = -19961.18018698 eV

CRYSTAL
PRIMVEC
        5.93400000     0.00000000     0.00000000
        0.00000000     9.29699974     0.00000000
        0.00000000     0.00000000     4.64899994
PRIMCOORD
24 1
Ti      4.45942399     6.90768101     2.31057102    -0.61106506     0.77029534     0.24388028
Ti      4.43757702     2.32156600     2.33378301     0.14580269    -0.12775456     0.70721947
Ti      1.47965902     6.99649098     2.34494802     0.84147301     0.48120939    -0.00287604
Ti      1.45983900     2.37466402     2.31725601    -0.16299412    -0.76787567     0.22131576
Ti      2.96426400     4.66409002     0.02543199     0.08643923    -0.21172065    -0.18080004
Ti      2.99806900     0.00665102     4.63363301    -0.21821295    -0.58125028    -0.30385257
Ti      0.01649699     4.65397601     0.00596102    -0.20505481    -0.14007735    -0.11526568
Ti      5.92904600     9.26787002     0.06142102     0.19122510    -0.03672257    -0.70138049
O       4.37424799     5.58109000     0.84862499     0.66133066    -0.39957298     0.13734401
O       4.41830602     0.89104400     0.80688799     0.49684787     0.47337858     0.69960849
O       1.50625399     5.58253100     0.91438400    -0.25049625    -0.05466476    -0.13860822
O       1.46556602     0.92347399     0.95717697     0.07722388    -0.41453937    -0.73757495
O       4.46762301     8.35591098     3.63652802    -0.03577486     0.71146539     1.08167276
O       4.47342798     3.69825999     3.67049602    -0.25588142     0.53953797     0.83119939
O       1.45953399     8.36231799     3.72828302    -0.17367628     0.04565432    -0.08915432
O       1.44166298     3.72826698     3.82486999     0.42776976    -0.17517061    -0.67576124
O       2.99076800     6.15481302     3.23956798    -0.97543756    -0.89451283     0.07151398
O       3.00005702     1.39777800     3.25753101    -0.14441789     0.60779179    -0.76916585
O       5.86401298     5.95984999     3.24330101     0.89587937     0.92063345    -0.75501732
O       5.92073797     1.40395302     3.17086702     0.33947547     0.15991908     0.06976151
O       3.01109999     7.87126801     1.36832701    -0.95588637    -0.12877889     0.24575359
O       3.02696102     3.26169802     1.37699900    -0.46347288    -0.29732788     0.33704501
O       5.86494401     7.88966899     1.39430998     0.90254368    -0.36445529     0.13025419
O       0.08265399     3.30126402     1.47008102    -0.61364079    -0.11546237    -0.30711144
