# total energy = -19949.58187348 eV

CRYSTAL
PRIMVEC
        5.66971105     0.00000000     0.00000000
        1.19493789     5.91479023     0.00000000
        0.00000000     0.00000000    10.19916170
PRIMCOORD
24 1
Ti      2.76311655     3.50509921     3.78381638     0.26293422    -1.75396352     0.87410135
Ti      4.10153211     2.40969116     6.41534573    -0.26293422     1.75396352    -0.87410135
Ti      5.37657854     2.40969328     1.31572392    -0.58908546    -0.36308258     0.06180420
Ti      1.48807014     3.50509732     8.88343829     0.58908546     0.36308258    -0.06180420
Ti      2.16564775     0.54770432     1.31576482     0.26293422    -1.75396352    -0.87410135
Ti      4.69900094     5.36708623     8.88339740    -0.26293422     1.75396352     0.87410135
Ti      0.89060124     0.54770203     6.41530483     0.58908546     0.36308258     0.06180420
Ti      5.97404744     5.36708851     3.78385727    -0.58908546    -0.36308258    -0.06180420
O       2.21525719     2.08269822     5.20455430     1.37522703     1.62413536    -0.55464655
O       4.64939148     3.83209216     4.99460780    -1.37522703    -1.62413536     0.55464655
O       1.46115205     2.08272204     0.10500610    -0.54412893     0.09006732     0.71427972
O       5.40349668     3.83206839    10.09415572     0.54412893    -0.09006732    -0.71427972
O       4.05192265     0.87469709     0.10497299    -1.37522703    -1.62413536    -0.55464655
O       2.81272601     5.04009328    10.09418882     1.37522703     1.62413536     0.55464655
O       4.80602785     0.87467332     5.20458741     0.54412893    -0.09006732     0.71427972
O       2.05862076     5.04011712     4.99457469    -0.54412893     0.09006732    -0.71427972
O       0.93282262     3.59771064     2.75504812     0.26845207     0.89419196     0.96345982
O       5.93182605     2.31707973     7.44411398    -0.26845207    -0.89419196    -0.96345982
O       3.50895814     2.31702449     2.34456537     0.78229185     0.96034801     0.20220654
O       3.35569052     3.59776588     7.85459656    -0.78229185    -0.96034801    -0.20220654
O       0.33535379     0.64031557     2.34453278     0.26845207     0.89419196    -0.96345982
O       6.52929488     5.27447486     7.85462915    -0.26845207    -0.89419196     0.96345982
O       2.75822169     0.64037076     7.44414651    -0.78229185    -0.96034801     0.20220654
O       4.10642697     5.27441961     2.75501553     0.78229185     0.96034801    -0.20220654
