# total energy = -4986.44784273 eV

CRYSTAL
PRIMVEC
        3.10120636     0.00000000     0.00000000
        1.86889447     4.48534641     0.00000000
       -0.00001191    -0.00006456     4.96329613
PRIMCOORD
6 1
Ti      2.48504437     2.24264078     2.48164801     0.00000000     0.00000000     0.00000000
Ti      0.00000000     0.00000000     0.00000000     0.00000000     0.00000000     0.00000000
O       1.91482079     0.87411526     0.96727329    -1.73162988     1.05602214     0.89957842
O       3.05526796     3.61116629     3.99602268     1.73162988    -1.05602214    -0.89957842
O       0.57021848     1.36849946     3.44892239     1.73138151    -1.05594886     0.89940333
O       1.29866405     3.11678229     1.51437363    -1.73138151     1.05594886    -0.89940333
