# total energy = -19515.29851751 eV

CRYSTAL
PRIMVEC
        5.17600016     0.00000000     0.00000000
        0.00000000     5.50899976     0.00000000
        0.00000000     0.00000000     9.26300011
PRIMCOORD
23 1
Ti      1.75220600     3.29931098     3.46459098    -0.49782026    -1.42984242     3.34122076
Ti      3.38749599     2.31114999     5.84886602    -1.23721273     0.65086395    -3.46709662
Ti      4.37439299     2.00929602     1.57527701    -0.63246462    -0.90855029    -1.12205760
Ti      0.96042199     3.11392998     7.83270798     1.34626688     1.83019521     1.22201082
Ti      2.02970898     0.26954400     1.33845400     0.34054094     0.01413002    -1.94391489
Ti      3.37833302     5.35354701     7.69877602    -0.28890057    -1.11525292     3.26009086
Ti      0.61273799     0.56352202     6.07422801    -0.06620310    -2.64370130    -5.01124956
Ti      4.43264800     4.97258199     3.28017900     0.71872593    -0.03143432     3.12846678
O       1.45332801     2.23765098     4.96491802     1.10554983    -0.70591026    -0.24100244
O       3.39583498     3.66590800     4.43758998     1.13318457    -0.45551840     1.66092812
O       0.21037902     2.51277198     0.03611301     1.29353868     1.01542466     0.37826187
O       3.62012702     0.91705100     0.19585998    -1.34488980    -0.20260815    -1.18848054
O       1.98153099     4.95453202     8.85449400    -1.53796583    -1.16788471     0.81275429
O       4.27628601     0.87539501     4.74291102    -0.97543036     0.18410571    -0.03182256
O       0.87575702     4.79683699     4.41564802    -0.02744834     0.59349259     0.10705255
O       0.09602498     3.30611398     2.61704900    -1.04740457    -0.16351502    -1.02178274
O       5.05786801     1.97859099     6.86075902    -2.54399311     0.48905383     0.84508593
O       2.47387999     1.89822600     2.22492898     0.68490640    -0.23813052    -0.02550252
O       2.86091700     3.41101898     7.25992398    -0.74213223     0.74513477     0.28790298
O       0.13214900     0.37496198     1.76712202     1.18012059     0.11793757     1.04361913
O       5.10981702     4.58876301     7.24482100     0.04516016     1.28501855    -0.45485737
O       2.23790303     0.99601499     6.79753700     1.82229472    -0.20978615     0.66433834
O       2.72551499     4.40905902     2.34265901     1.27157682     2.34677759    -2.24396583
