# total energy = -19515.93561262 eV

CRYSTAL
PRIMVEC
        5.93400000     0.00000000     0.00000000
        0.00000000     9.29699974     0.00000000
        0.00000000     0.00000000     4.64899994
PRIMCOORD
23 1
Ti      4.42815099     6.86598301     2.28088698     2.63997577     0.82029123    -0.13579903
Ti      4.55923201     2.37285598     2.30738702    -1.95623176    -0.18405943     0.38553603
Ti      1.56629301     7.14716600     2.33498901    -0.87987811    -0.46707834    -1.54448204
Ti      1.46423001     2.34971299     2.42002599     1.70805363    -0.06135683    -0.90703848
Ti      2.98445502     4.67917898     0.24063902    -2.02579247    -0.54968715     0.57139061
Ti      2.99782997     0.18826100     4.57011999    -0.50437941    -1.01202335     0.48893864
Ti      5.91229299     4.40237498     4.60127699     0.28893271     2.96311702    -1.91976425
Ti      5.90883403     0.01407299     4.58575898     0.51611470    -0.82320917     0.44703864
O       4.50822202     5.38375001     0.89907199    -0.53963156     1.55457774     0.90291906
O       4.55469199     1.03646699     0.82430898    -0.65405186    -0.85880225    -0.09595103
O       1.41039602     5.59589400     1.03384999     0.85819239    -1.29952292    -1.26317882
O       1.56827002     0.91827398     1.00571899    -0.60638025    -0.41366623    -1.07528151
O       4.29723101     8.48451698     3.43828902     0.90214104    -0.22909695     1.63603057
O       4.21636002     3.56194700     3.72680100     1.43647613     1.11037939     0.40004169
O       1.46395600     8.50460100     3.66622799     0.16683972    -0.42585377     0.43344984
O       1.47359301     3.59549102     3.89362302     0.36302422     0.56258843    -0.98208541
O       2.93348901     1.43835901     3.23115899     0.20251867     0.15650439    -0.36982042
O       5.70015001     5.93129998     3.29977698     0.01303807     0.42362257    -0.32925508
O       0.07756701     1.36963402     3.19041901    -1.20428794     0.31611751     0.19900320
O       2.95031002     7.69927800     1.14746202     0.05532090    -0.00337895     1.60583347
O       2.88715298     3.32392498     1.46686600     0.58381547    -0.63651385     0.32516060
O       0.10266801     7.78941498     1.49131600    -1.58232869     1.10838010    -1.49027005
O       5.89531598     3.29365498     1.33347000     0.21851891    -2.05132919     2.71758352
