# total energy = -19935.34661598 eV

CRYSTAL
PRIMVEC
        5.99254056     0.00000000     0.00000000
        1.87128917     6.09717714     0.00000000
        0.00000000     0.00000000    10.85080378
PRIMCOORD
24 1
Ti      3.28093192     3.61318156     4.02557081     0.11118894    -2.24444071     0.83873401
Ti      4.58289770     2.48399572     6.82523303    -0.11118894     2.24444071    -0.83873401
Ti      5.93054467     2.48399782     1.39978776    -0.59645785    -0.71312375     0.11327899
Ti      1.93328505     3.61317969     9.45101621     0.59645785     0.71312375    -0.11327899
Ti      2.34528748     0.56459309     1.39983126     0.11118894    -2.24444071    -0.83873401
Ti      5.51854217     5.53258437     9.45097270    -0.11118894     2.24444071     0.83873401
Ti      0.99764048     0.56459081     6.82518953     0.59645785     0.71312375     0.11327899
Ti      6.86618917     5.53258665     4.02561432    -0.59645785    -0.71312375    -0.11327899
O       2.55558962     2.14691976     5.53708212     1.73813709     2.05417489    -0.74939509
O       5.30824001     3.95025757     5.31372173    -1.73813709    -2.05417489     0.74939509
O       1.75854866     2.14694436     0.11171513    -0.46307102    -0.25281821     1.13721992
O       6.10528104     3.95023303    10.73908841     0.46307102     0.25281821    -1.13721992
O       4.37259554     0.90166893     0.11167992    -1.73813709    -2.05417489    -0.74939509
O       3.49123409     5.19550841    10.73912362     1.73813709     2.05417489     0.74939509
O       5.16963657     0.90164438     5.53711732     0.46307102     0.25281821     1.13721992
O       2.69419302     5.19553303     5.31368652    -0.46307102    -0.25281821    -1.13721992
O       1.35594701     3.70864882     2.93107281     0.48070700     1.80894015     1.78803348
O       6.50788262     2.38852852     7.91973104    -0.48070700    -1.80894015    -1.78803348
O       3.94705258     2.38847167     2.49436362     0.87078103     1.58595241     0.76252906
O       3.91677705     3.70870567     8.35644004    -0.87078103    -1.58595241    -0.76252906
O       0.42030248     0.66006018     2.49432896     0.48070700     1.80894015    -1.78803348
O       7.44352709     5.43711717     8.35647470    -0.48070700    -1.80894015     1.78803348
O       2.98113258     0.66011702     7.91976563    -0.87078103    -1.58595241     0.76252906
O       4.88269705     5.43706032     2.93103815     0.87078103     1.58595241    -0.76252906
