# total energy = -19927.56350335 eV

CRYSTAL
PRIMVEC
        7.23570212     0.00000000     0.00000000
        0.00002848     5.13398336     0.00000000
        0.00000000     0.00000000    11.24159359
PRIMCOORD
24 1
Ti      2.62261099     3.04239376     4.17055104     0.55427374    -0.39487197     1.21053084
Ti      4.61311973     2.09158959     7.07104267    -0.55427374     0.39487197    -1.21053084
Ti      6.24033732     2.09159138     1.45020087     0.55391379     0.39490642    -1.21151454
Ti      0.99539340     3.04239222     9.79139290    -0.55391379    -0.39490642     1.21151454
Ti      2.62259676     0.47540221     1.45024594     0.55435267    -0.40789024    -1.21140579
Ti      4.61313397     4.65858134     9.79134783    -0.55435267     0.40789024     1.21140579
Ti      0.99537916     0.47540030     7.07099754    -0.55373407    -0.40786067    -1.21123506
Ti      6.24035156     4.65858325     4.17059610     0.55373407     0.40786067     1.21123506
O       2.29015549     1.80776284     5.73649918     0.85616019     1.22635573    -1.25403392
O       4.94557523     3.32622058     5.50509453    -0.85616019    -1.22635573     1.25403392
O       1.32775808     1.80778353     0.11573851    -0.85559891     1.22622692    -1.25453889
O       5.90797277     3.32619989    11.12585483     0.85559891    -1.22622692     1.25453889
O       4.94556105     0.75922884     0.11570201    -0.85595604    -1.22663315    -1.25439310
O       2.29016967     4.37475452    11.12589133     0.85595604     1.22663315     1.25439310
O       5.90795853     0.75920821     5.73653561     0.85591439    -1.22645986    -1.25478983
O       1.32777213     4.37477527     5.50505804    -0.85591439     1.22645986     1.25478983
O       0.26290726     3.12277971     3.03663490    -1.76732657     0.50360396     0.32358297
O       6.97282347     2.01120371     8.20495881     1.76732657    -0.50360396    -0.32358297
O       3.88076641     2.01115584     2.58419771    -1.76743970    -0.50311982    -0.32306257
O       3.35496431     3.12282758     8.65739582     1.76743970     0.50311982     0.32306257
O       0.26289302     0.55578797     2.58416177    -1.76778680     0.50333040    -0.32350866
O       6.97283771     4.57819539     8.65743170     1.76778680    -0.50333040     0.32350866
O       3.35495014     0.55583584     8.20499463     1.76784491     0.50322267    -0.32419515
O       3.88078059     4.57814758     3.03659902    -1.76784491    -0.50322267     0.32419515
