# total energy = -19950.19511005 eV

CRYSTAL
PRIMVEC
        5.22814085     0.00000000     0.00000000
        1.88966823     5.23362663     0.00000000
        0.00000000     0.00000000     9.50833451
PRIMCOORD
24 1
Ti      3.01476532     3.10144221     3.52752430     2.01587804    -2.90482006     1.14012758
Ti      4.10304395     2.13218428     5.98081032    -2.01587804     2.90482006    -1.14012758
Ti      5.27878719     2.13218606     1.22660504    -4.15781397     0.01964375     1.31219307
Ti      1.83902211     3.10144059     8.28172968     4.15781397    -0.01964375    -1.31219307
Ti      2.06993134     0.48462903     1.22664316     2.01525840    -2.90479872    -1.13862143
Ti      5.04787795     4.74899756     8.28169156    -2.01525840     2.90479872     1.13862143
Ti      0.89418802     0.48462711     5.98077219     4.15771627    -0.02008367     1.30756302
Ti      6.22362128     4.74899954     3.52756242    -4.15771627     0.02008367    -1.30756302
O       2.32012394     1.84284885     4.85203032     0.31912827     1.12257440    -1.00289387
O       4.79768533     3.39077764     4.65630429    -0.31912827    -1.12257440     1.00289387
O       1.62475337     1.84286996     0.09789366     0.72296337    -0.69497896     0.27042076
O       5.49305596     3.39075658     9.41044070    -0.72296337     0.69497896    -0.27042076
O       3.85285133     0.77396436     0.09786280    -0.31960804    -1.12307859    -1.00341863
O       3.26495794     4.45966213     9.41047155     0.31960804     1.12307859     1.00341863
O       4.54822195     0.77394324     4.85206118    -0.72299628     0.69495607     0.27080668
O       2.56958727     4.45968326     4.65627344     0.72299628    -0.69495607    -0.27080668
O       1.33935375     3.18338831     2.56843837     0.14860545    -0.05440096    -0.15566827
O       5.77845552     2.05023818     6.93989625    -0.14860545     0.05440096     0.15566827
O       3.54427863     2.05018943     2.18575916     1.60236248    -0.45622828    -1.23428758
O       3.57353064     3.18343706     7.32257530    -1.60236248     0.45622828     1.23428758
O       0.39451975     0.56657503     2.18572878     0.14850954    -0.05500055     0.15547364
O       6.72328952     4.66705146     7.32260568    -0.14850954     0.05500055    -0.15547364
O       2.62869664     0.56662378     6.93992653    -1.60207683     0.45597323    -1.23374739
O       4.48911263     4.66700271     2.56840804     1.60207683    -0.45597323     1.23374739
