# total energy = -19961.44247463 eV

CRYSTAL
PRIMVEC
        7.60600008     0.00000000     0.00000000
        0.00000000     7.60600008     0.00000000
       -1.89786986    -1.89786986     4.85670466
PRIMCOORD
24 1
Ti      3.79462401     6.70971501     1.27167199    -0.30019235    -1.37802336    -1.31083115
Ti      3.78389098     2.83584400     1.23158602     0.48644981     1.55318960    -0.60802036
Ti     -0.03513102     6.58680502     1.18740702     0.30778276    -0.44002159    -0.30558421
Ti      0.04434400     2.77525702     1.21456101    -0.21034460     0.53944027     0.52888460
Ti      5.69942922     2.73518121     3.61638383     0.58339638     1.65481197     0.35061555
Ti      5.70673721    -0.95349877     3.65344481     0.13738463    -2.02950772    -0.42912885
Ti      1.91306223     2.87353222     3.55281583    -0.48058487     1.22045504     2.32107452
Ti      1.86117322    -0.86579478     3.64171983    -0.21414983    -1.22818275    -0.28710980
O       3.79020999     4.82199698     0.71832600     0.36903777    -0.67594996     0.41609746
O       3.72567698     0.99610701     0.84304101     0.52505494     0.36349730     0.03086508
O      -0.00682099     4.63091701     0.72467300    -0.07273602     0.49467966     0.17204980
O      -0.03579403     0.84027802     0.83363001     0.04734740     1.10704107    -0.22356367
O       5.67234720     4.68735122     4.02412480     0.20454727     0.01628409     0.84248088
O       5.89440421     0.84114825     4.02102879    -0.41220173     1.12129553     0.22785150
O       1.86888122     4.80497124     4.11262483     0.38157062     0.52890286    -0.11286993
O       1.66010222     1.00534623     4.06374382     1.03734204    -0.15406673    -0.12051459
O       3.82441420     3.00127121     3.18527583     0.24526688    -1.01980325     0.11892668
O       3.80899721    -0.91450878     3.27028683    -0.18443224     0.39913255     0.01406188
O       0.08170020     3.03264724     3.16843079    -0.64302465    -0.71196933    -0.14152437
O       0.02174220    -1.00675279     3.26260381    -0.60300028    -0.18723474    -0.56673665
O       5.69615600     6.55199600     1.65322799     0.32248202     0.34162697     0.18521746
O       5.80273499     2.82969999     1.72411197    -0.94065798    -0.44598012    -1.38171881
O       1.88238302     6.72490700     1.64460500    -0.02892132    -0.29213425     0.32647854
O       1.96034898     3.01279500     1.59015599    -0.55741640    -0.77748260    -0.04700184
