# total energy = -19958.77788670 eV

CRYSTAL
PRIMVEC
        7.60600008     0.00000000     0.00000000
        0.00000000     7.60600008     0.00000000
       -1.89786986    -1.89786986     4.85670466
PRIMCOORD
24 1
Ti      3.81197399     6.75707399     1.27331598    -0.86448182     0.63982183     1.11177730
Ti      3.74253699     3.02094401     1.22452801     1.53235568    -0.53369462    -0.08886739
Ti      0.04717599     6.46736902     1.12129601     0.63243582     1.15883056     1.76463566
Ti      0.12904998     2.80384698     1.03365499    -0.35650415    -0.83364914     2.63222929
Ti      5.72286320     2.79608924     3.51544280    -0.39053632     0.14186684    -1.08174526
Ti      5.74048824    -1.14007275     3.58614379    -0.25980441     0.47374290     0.68004624
Ti      1.86256623     3.03463822     3.79197982     0.48932431    -0.14435284    -1.09036360
Ti      1.71224322    -0.88125877     3.68746583     1.66192133     0.43188584     0.39699699
O       3.61940501     4.88958901     0.91647001     0.72041695     0.27838501    -0.07074239
O       3.67215202     1.08531100     0.83657600     0.08019325    -0.62363673     0.11720301
O      -0.12990000     4.71678099     0.56629300     0.63309865    -1.81899497     1.54182455
O       0.44491202     0.79820303     0.67527298    -1.34523561     1.49460313     0.48483953
O       5.78379420     4.68483122     4.13847879    -0.48925669    -0.08478627    -2.99693938
O       5.87406925     0.90230325     4.08466183     0.01442724    -0.54830466    -2.56564438
O       1.88411925     4.94546721     4.24507482    -0.20396312    -1.44993894    -0.43808375
O       1.82218021     1.23308020     4.17071780    -0.51750104    -2.64407051    -0.40179647
O       3.71659524     3.00529423     3.46999383     2.27859526    -0.02825206    -0.75718502
O       3.59824422    -0.93496677     3.34401381     2.23310445     0.52621965    -0.76228918
O       0.04896324     2.92896322     3.00192782    -0.84995586     0.25264338     1.16513954
O      -0.01654780     6.25366921     3.12468281    -1.18985171     1.14876443     0.59166016
O       5.71495401     6.53466502     1.60077801    -0.96108412     0.69069832     0.56925813
O       5.69839399     2.82682301     1.53495302     0.22345723    -0.23677709     0.56365827
O       1.81741698     6.30884101     1.71036998     0.42650529     1.27332646    -0.24727157
O       2.09643500     2.80386000     1.82580799    -3.49766062     0.43566871    -1.11834030
