# total energy = -4981.92539808 eV

CRYSTAL
PRIMVEC
        2.90413874     0.00000000     0.00000000
        1.94898999     4.11182732     0.00000000
       -0.00001273    -0.00006114     4.67609317
PRIMCOORD
6 1
Ti      2.42655790     2.05588311     2.33804649     0.00000000     0.00000000     0.00000000
Ti      0.00000000     0.00000000     0.00000000     0.00000000     0.00000000     0.00000000
O       1.83189626     0.80132272     0.91130166    -6.83314833     3.01753006     3.93007765
O       3.02121949     3.31044351     3.76479131     6.83314833    -3.01753006    -3.93007765
O       0.59465631     1.25453572     3.24934911     6.83041268    -3.01550249     3.92566358
O       1.35432083     2.85723039     1.42674386    -6.83041268     3.01550249    -3.92566358
