# total energy = -18961.81468307 eV

CRYSTAL
PRIMVEC
        7.60600008     0.00000000     0.00000000
        0.00000000     7.60600008     0.00000000
       -1.89786986    -1.89786986     4.85670466
PRIMCOORD
22 1
Ti      6.18606300     5.12648499     0.77499199   -15.45123838    12.16992923     9.19838465
Ti      6.11256425     1.91277224     2.43351181    -9.76221030     3.88100041    -7.61919528
Ti     -1.33553479     4.30205822     3.89666680    -1.85788575    14.03796339    -3.75302859
Ti      0.31625299     3.46712902     1.30540799    10.25308910   -14.08448417    16.89680105
Ti     -1.45921278     2.77335420     4.78664080    18.87746293    77.07971236    53.41144583
Ti      5.11005822     2.12065021     4.29373082   -80.81992220   -51.12827786   -43.21241779
Ti     -0.40887579     2.04391024     4.29578381    66.44533289   -46.50525706   -18.00806156
Ti     -0.98402976     0.11839420     3.64806081     4.29715316   -12.60459033     1.52591892
O       3.69917700     6.13154399     0.66261898     1.15054467    -0.63657735     0.41890357
O       5.62900002     6.53628701     1.58526502    -2.71194894     1.28786451     2.15195912
O       0.17661598     5.26780400     1.54445302    -1.78975457     7.08229629     6.18471484
O      -0.30364778     5.46983525     3.68959482     2.06677304     7.37002187     0.34823754
O       5.85256502     3.74842398     2.28063001   -10.33960572     8.19584200    11.44917753
O      -0.70817500     0.72556202     1.85997299     5.09969965    -7.97276863    -2.57339240
O       0.15767323     3.55558623     4.65690183     9.22551880     9.87245847     7.99884503
O       1.83840902     3.95524201     1.49203002     8.36721560    -0.65751026     1.04558911
O       3.87938625     1.88255225     2.95151580     1.22895589    -0.84797225    -1.35621191
O       0.33586123     2.94736123     3.09114181     3.47289060     0.98619095   -10.91556210
O       4.30622924     4.02237021     4.15105982     0.59752460     2.70933799    -4.03103077
O       6.24978499     3.40590602     1.23821502    -8.83554298    -5.95895133   -11.19244019
O       0.88344120     0.48551822     4.18169182    -4.19372844    -0.78032496    -0.78251605
O       7.14039999     2.15452099     0.26712899     4.67967637    -3.49590301    -7.18612056
