# total energy = -78964.87792281 eV

CRYSTAL
PRIMVEC
       10.35150501     0.00002646     0.00000000
        0.00002858    11.01713167     0.00000000
        0.00000000     0.00000000     9.26345890
PRIMCOORD
94 1
Ti      7.18672942     8.68647332     3.27753953     0.00616576     0.01480210     0.00215639
Ti      7.09200282     3.32562385     3.47176571     0.02800061    -0.01694383     0.03621837
Ti      1.79467116     8.77100717     3.47296389     0.02673897     0.01496923    -0.01041194
Ti      1.83251538     3.40173908     3.48795822     0.04310790     0.00187331     0.02760055
Ti      8.37049285     7.68452668     5.74227962    -0.00196535     0.02750464    -0.00720655
Ti      8.53540654     2.19114713     5.82824054     0.01064746     0.01430999     0.01547702
Ti      3.33941762     7.63891527     5.79191402    -0.04060673     0.00964035     0.02565936
Ti      3.17510816     2.25233485     5.83329490     0.02362305     0.00822213    -0.01401355
Ti      9.74445536     7.68445153     1.11028818     0.00182420     0.02713286    -0.00680571
Ti      9.58032274     2.19131488     1.19663823    -0.01084312     0.01447352     0.01587065
Ti      4.42451154     7.63854084     1.16041296     0.04006063     0.00942207     0.02499705
Ti      4.58819630     2.25248221     1.20148905    -0.02326129     0.00742663    -0.01457508
Ti      5.96899742     8.77079776     8.10472571    -0.02689786     0.01564131    -0.01045205
Ti      5.93094732     3.40183475     8.11968826    -0.04282328     0.00171287     0.02725499
Ti      0.57706607     8.68649561     7.90921684    -0.00664708     0.01533458     0.00197152
Ti      0.67166511     3.32587569     8.10374092    -0.02865650    -0.01685025     0.03592115
Ti      7.04395906     6.04807610     1.18378750    -0.01980727    -0.01195641    -0.01621030
Ti      7.02339198     0.53768076     1.20186554    -0.00907188    -0.01085880    -0.02241720
Ti      1.89721962     6.04165227     1.22431433    -0.01130257     0.06218498    -0.00848413
Ti      1.91552593     0.85904532     1.33985236    -0.02223902     0.00237673     0.02050610
Ti      8.47094716    10.49271295     8.07012631     0.03062699     0.01113571     0.00991289
Ti      8.50326838     4.96260168     8.04895877    -0.01454165    -0.03238383     0.00612128
Ti      3.49595403    10.40922318     7.93736686    -0.03526346     0.00064380    -0.05262947
Ti      3.28796418     4.93808486     8.08510112     0.00732353     0.00355789     0.00909708
Ti      5.86640194     6.04146160     5.85585252     0.01109894     0.06221686    -0.00801002
Ti      5.84779941     0.85935453     5.97153574     0.02300161     0.00214687     0.02111519
Ti      0.71987406     6.04821368     5.81555266     0.01964632    -0.01199292    -0.01638642
Ti      0.74042050     0.53757964     5.83381355     0.00939301    -0.01063486    -0.02267534
Ti      9.64439627    10.49250279     3.43846758    -0.03043030     0.01070659     0.01017103
Ti      9.61164338     4.96294499     3.41749209     0.01392793    -0.03348297     0.00623673
Ti      4.26862148    10.40933756     3.30531407     0.03695294     0.00102998    -0.05262022
Ti      4.47542072     4.93788677     3.45350124    -0.00731505     0.00341777     0.00845688
O       6.76901084     7.46998057     4.71914117    -0.03887047     0.00551425    -0.01846001
O       6.84626069     1.91752687     4.71580563    -0.00066849     0.00001723    -0.00703403
O       1.59776045     7.44245713     4.75776707     0.00969898    -0.03198839    -0.01254313
O       1.67557990     1.87952205     4.68184811     0.00781924     0.01198983     0.01264623
O       8.61426993     9.12759552     4.54835702     0.02121727    -0.00428140    -0.00468224
O       8.72448765     3.58154911     4.53307217     0.03015185     0.02245217     0.02098072
O       3.49043281     9.10540356     4.55041880    -0.01809800    -0.04102531     0.00010516
O       3.57121520     3.55174648     4.51503952    -0.00887905    -0.04924616     0.00143853
O       6.16586954     7.44236234     0.12610941    -0.00908474    -0.03242008    -0.01273751
O       6.08783949     1.87955491     0.05020723    -0.00786938     0.01207802     0.01244723
O       0.99453152     7.46991344     0.08729820     0.03868458     0.00556695    -0.01819468
O       0.91731536     1.91733716     0.08402042     0.00005759     0.00037307    -0.00691344
O       9.50091347     9.12759442     9.17992944    -0.02142912    -0.00435905    -0.00402763
O       9.39059751     3.58143110     9.16477113    -0.03026061     0.02272008     0.02107663
O       4.27353584     9.10553351     9.18211407     0.01829546    -0.04143591     0.00037050
O       4.19224817     3.55184393     9.14687509     0.00903949    -0.04889854     0.00118271
O       8.72572332     6.33486994     0.07312431     0.00475577     0.02753807     0.01457045
O       8.69722184     0.83525591     0.10007025    -0.04335370     0.00906006     0.01519574
O       3.57884034     6.34279649     0.08987336    -0.03949267     0.00983987    -0.01458613
O       3.27169020     0.61377777     0.06914727    -0.03015160    -0.03223265    -0.03158550
O       6.86747391    10.15535149     9.19197573    -0.03153691     0.00664862     0.00286884
O       6.80377387     4.67416308     9.20162934     0.00271329     0.00321851    -0.01018106
O       1.64940612     4.69270140     9.16218731    -0.00568754    -0.00651209    -0.00269837
O       9.38925942     6.33495075     4.70493429    -0.00445367     0.02767305     0.01428891
O       9.41794026     0.83528080     4.73178361     0.04322977     0.00879832     0.01496717
O       4.18471980     6.34268948     4.72164692     0.03994390     0.00986250    -0.01454756
O       4.49194036     0.61373901     4.70089328     0.03056709    -0.03192771    -0.03156699
O       6.11412225     4.69264244     4.53044464     0.00566234    -0.00620922    -0.00267446
O       0.89630791    10.15534391     4.56024496     0.03152945     0.00642673     0.00292052
O       0.95974919     4.67423591     4.56989318    -0.00287578     0.00299791    -0.01072022
O       5.41963289     9.00205513     2.69649987    -0.04157141    -0.03115870    -0.04958554
O       5.39004876     3.37600385     2.45231375    -0.02736658     0.02396243    -0.02943837
O       0.15585628     8.85436362     2.50230841     0.00166968    -0.02522433     0.00236927
O       0.19720672     3.35292740     2.50130773     0.03002561     0.01302547    -0.01043688
O      10.10390784     7.59995998     6.75190092     0.00261430    -0.02145689     0.00555976
O      10.19314685     2.14718134     6.77299932    -0.00007045    -0.02608102    -0.00051525
O       4.96407495     7.65602589     6.78385361     0.00203529     0.03022539     0.01369936
O       4.94345376     2.19696125     6.77590361    -0.02801398     0.03320427     0.02201971
O       8.01125151     7.59985544     2.12019697    -0.00242738    -0.02096247     0.00571454
O       7.92208473     2.14729947     2.14120267     0.00003265    -0.02661016    -0.00074973
O       2.79957421     7.65605306     2.15208135    -0.00159871     0.03006675     0.01318925
O       2.81989404     2.19680705     2.14408412     0.02812377     0.03363107     0.02220148
O       7.60785453     8.85438540     7.13409703    -0.00150950    -0.02513486     0.00266881
O       7.56629296     3.35298032     7.13309440    -0.03022693     0.01243206    -0.01058138
O       2.34421023     9.00230964     7.32833936     0.04175447    -0.03120318    -0.04908366
O       2.37348595     3.37607334     7.08404470     0.02727993     0.02395061    -0.02958852
O       5.39589980     6.17188702     2.16952058    -0.02948516     0.00647378    -0.00362629
O       5.30712672     0.58504589     2.07889424     0.02616381    -0.02674540    -0.01994740
O       0.22834799     6.09854068     2.12269982     0.02231538    -0.00391785     0.04025835
O       0.15789850     0.59005303     2.12683546    -0.01999599     0.00649795    -0.00467067
O      10.24356901    10.41971763     7.20229297    -0.00199955     0.02395189     0.02731284
O      10.14395610     4.90280935     7.12366329    -0.02966951     0.01468872     0.00141925
O       5.10801999    10.39659869     7.07076074     0.00204840    -0.01397678     0.00247109
O       4.97513800     4.89332162     7.11611516    -0.02383748    -0.03241751     0.01629052
O       7.53518771     6.09853629     6.75449373    -0.02286329    -0.00367436     0.04001024
O       7.60578285     0.59022854     6.75845060     0.01948666     0.00647224    -0.00406440
O       2.36767257     6.17194511     6.80123233     0.02984846     0.00639048    -0.00310795
O       2.45660592     0.58502166     6.71054753    -0.02625997    -0.02671583    -0.01996257
O       7.87171824    10.41965661     2.57052106     0.00169204     0.02395909     0.02733546
O       7.97112298     4.90287707     2.49199391     0.02896940     0.01425909     0.00107318
O       2.65614760    10.39670257     2.43929327    -0.00204377    -0.01452340     0.00208259
O       2.78837872     4.89328261     2.48434013     0.02375854    -0.03240620     0.01593005
