# total energy = -19517.21088490 eV

CRYSTAL
PRIMVEC
        5.93400000     0.00000000     0.00000000
        0.00000000     9.29699974     0.00000000
        0.00000000     0.00000000     4.64899994
PRIMCOORD
23 1
Ti      4.47591199     7.14396400     2.12900999     0.28865400     0.20477379     0.14129708
Ti      4.52297501     2.30278899     2.21372698     0.37569848     0.05704046     1.31592940
Ti      1.28910002     7.02796702     2.26973002    -0.24471152    -0.94230863    -0.89857826
Ti      1.56616601     2.31540299     2.49946899    -0.80093570    -0.95017724    -0.53161229
Ti      2.92631400     4.51732302     0.24279801     1.12357610     0.46055931    -0.19714635
Ti      2.99928600     0.05269002     0.00984598    -0.16308436     0.83587366     1.04171111
Ti      5.91401499     4.53985200     0.12098098    -0.94278840     0.06713127    -0.70300311
Ti      0.10782500     9.29518398     4.44867799    -0.84139305     1.21483975     1.20354026
O       4.53445799     5.57564101     1.03307200    -1.00409072    -0.41906092    -1.04522299
O       4.46926299     1.00998198     0.93942202    -0.78415359    -1.70530974    -1.43484810
O       1.46744799     5.64037902     0.87775001     0.48535041    -0.91322919    -0.39960717
O       1.49067803     0.93250303     0.90562400    -0.18732525    -0.55495225    -0.70959388
O       4.28931102     8.59051599     3.65253601     1.35476104    -2.03627846    -0.73642541
O       4.48472602     3.61821801     3.78930599    -0.07219660     1.54224826     0.66266686
O       1.35485902     8.21780101     3.64945498     1.57527538     1.65409824     1.60409592
O       1.54449699     3.62516701     3.93648098    -0.18070054     0.55225619    -1.21068999
O       3.00006300     1.44932102     3.29253498    -0.13603249    -0.23500483    -0.06769974
O       5.79171398     6.21550002     3.15299099    -0.23689485    -1.11689020     0.89275188
O       5.90715701     1.29020700     3.08459001     0.85958798     0.30563383     0.84396981
O       2.83584199     7.73042098     1.43481299     1.10813739     0.87373600    -0.42772168
O       3.02813500     3.30035002     1.52296699    -1.05417480    -0.22446099     0.60011061
O       0.02230202     7.94206902     1.30357201    -0.88592663     0.26128460    -0.16484480
O       0.07540098     3.15174499     1.39889498     0.36336772     1.06819709     0.22092109
