# total energy = -19916.92128103 eV

CRYSTAL
PRIMVEC
        7.29134128     0.00000000     0.00000000
        0.00003080     5.73579418     0.00000000
        0.00000000     0.00000000    11.60893854
PRIMCOORD
24 1
Ti      2.64277880     3.39902636     4.30683340     0.50028132    -0.77123790     1.16268388
Ti      4.64859335     2.33676801     7.30210521    -0.50028132     0.77123790    -1.16268388
Ti      6.28832351     2.33677000     1.49758952     0.49941306     0.77152690    -1.16365318
Ti      1.00304864     3.39902463    10.11134922    -0.49941306    -0.77152690     1.16365318
Ti      2.64276352     0.53112940     1.49763606     0.50028132    -0.77123790    -1.16268388
Ti      4.64860862     5.20466516    10.11130267    -0.50028132     0.77123790     1.16268388
Ti      1.00303337     0.53112721     7.30205866    -0.49941306    -0.77152690    -1.16365318
Ti      6.28833878     5.20466735     4.30687995     0.49941306     0.77152690     1.16365318
O       2.30776644     2.01967067     5.92395248     0.81721850     1.43062764    -1.20740515
O       4.98360577     3.71612370     5.68498613    -0.81721850    -1.43062764     1.20740515
O       1.33796859     2.01969381     0.11952055    -0.81679761     1.43017281    -1.20747482
O       5.95340368     3.71610062    11.48941773     0.81679761    -1.43017281     1.20747482
O       4.98359050     0.84822654     0.11948289    -0.81721850    -1.43062764    -1.20740515
O       2.30778171     4.88756783    11.48945540     0.81721850     1.43062764     1.20740515
O       5.95338841     0.84820347     5.92399015     0.81679761    -1.43017281    -1.20747482
O       1.33798374     4.88759096     5.68494846    -0.81679761     1.43017281     1.20747482
O       0.26493004     3.48883516     3.13586392    -1.40110828     0.29546640     0.04113175
O       7.02644217     2.24695922     8.47307469     1.40110828    -0.29546640    -0.04113175
O       3.91060854     2.24690572     2.66864230    -1.40144920    -0.29523706    -0.04117006
O       3.38076367     3.48888872     8.94029611     1.40144920     0.29523706     0.04117006
O       0.26491477     0.62093807     2.66860522    -1.40110828     0.29546640    -0.04113175
O       7.02645744     5.11485637     8.94033319     1.40110828    -0.29546640     0.04113175
O       3.38074840     0.62099156     8.47311170     1.40144920     0.29523706    -0.04117006
O       3.91062381     5.11480281     3.13582684    -1.40144920    -0.29523706     0.04117006
