# total energy = -19961.02018329 eV

CRYSTAL
PRIMVEC
        5.93400000     0.00000000     0.00000000
        0.00000000     9.29699974     0.00000000
        0.00000000     0.00000000     4.64899994
PRIMCOORD
24 1
Ti      4.41366202     6.84382101     2.27719100     0.56703336     0.46423239     0.44411118
Ti      4.47871399     2.34108402     2.33394298    -0.15422408    -1.26650043     0.29329844
Ti      1.49270202     7.01203000     2.32314898    -0.48789760    -0.04449913    -0.00817225
Ti      1.48354699     2.43434500     2.32448500     0.04609373    -1.58726830    -0.01325558
Ti      2.93864499     4.65416699     0.00222598    -0.14201236    -0.77444690     0.10100608
Ti      2.98051302     9.23431002     4.57310201    -0.27410027     1.59907018     0.46035542
Ti      5.93068201     4.66509598     0.03578402     0.30537955    -0.43733273    -0.38466751
Ti      0.00075000     9.21797601     0.08325398     0.12588974     1.60758490     0.38373600
O       4.47918400     5.57967900     0.86148702    -0.46946279     0.59726903     0.54633597
O       4.49798599     0.97793300     0.85220202    -0.33194163    -0.31769437     0.17521046
O       1.50215800     5.60212199     0.88924501    -0.02900643    -0.28878899    -0.18301608
O       1.49870400     0.88228199     0.88969402    -0.04007349     0.19715638     0.02106968
O       4.47548299     8.46975103     3.74998500    -0.20261766    -1.25039838    -0.69661649
O       4.46852002     3.76525298     3.83158599    -0.12217424    -0.06569454    -0.50828003
O       1.45854501     8.42452902     3.76274600     0.40214022    -0.72625104    -0.72779473
O       1.49948899     3.67588002     3.81511698    -0.16715982     0.72676783     0.24515503
O       2.87188499     6.07704000     3.29152800     1.18168356     0.11106913    -0.53343057
O       2.94975999     1.47385098     3.17692202     0.06898478    -0.55506487     0.45303780
O       0.08575799     6.02096002     3.10240699    -1.17977092    -0.47564938     1.26897872
O       0.03276602     1.42106000     3.13299798    -0.32440700     0.24630355     0.28215991
O       2.97427598     7.81922401     1.39740900     0.61361997     0.30027976    -0.04520824
O       2.95879098     3.27179001     1.45146599     0.10206666     0.76984128    -0.48650895
O       5.90665699     7.79787600     1.44468802    -0.37127695     0.94552174    -0.58674370
O       5.84916802     3.36473698     1.49771201     0.88323391     0.22449261    -0.50076058
