# total energy = -4983.92300749 eV

CRYSTAL
PRIMVEC
        4.20545694     0.00000000     0.00000000
        0.00000000     3.17263608     0.00000000
        0.00000000    -0.00008388     5.56236811
PRIMCOORD
6 1
Ti      2.10272841     1.58627594     2.78118411     0.00000000     0.00000000     0.00000000
Ti      0.00000000     0.00000000     0.00000000     0.00000000     0.00000000     0.00000000
O       2.10272841     0.61828363     1.08402365     0.00000000    -0.18945463     1.81505449
O       2.10272841     2.55426824     4.47834457     0.00000000     0.18945463    -1.81505449
O       0.00000000     0.96795895     3.86520890     0.00000000     0.18920164     1.81675219
O       0.00000000     2.20459292     1.69715932     0.00000000    -0.18920164    -1.81675219
