# total energy = -19959.64371863 eV

CRYSTAL
PRIMVEC
        5.93400000     0.00000000     0.00000000
        0.00000000     9.29699974     0.00000000
        0.00000000     0.00000000     4.64899994
PRIMCOORD
24 1
Ti      4.51805001     6.74962301     2.17639702    -1.73701197     0.57096483     1.75870206
Ti      4.45201599     2.60218298     2.28854799     1.70092833    -2.38495026    -0.35883409
Ti      1.52434201     6.88320402     2.10319000     1.41286413    -0.12490244     1.79695418
Ti      1.47537898     2.30580901     2.43831901    -0.75556959    -0.78644418     0.30548162
Ti      2.97090702     4.59327599     0.07994799    -1.18238959     0.04011411    -1.74875240
Ti      2.94258498     0.05601802     0.13844102     0.71830658     0.39459738    -0.91179708
Ti      0.00260699     4.66425300     4.50113200     1.16399051    -1.17199025     0.19778141
Ti      5.91222002     9.21571299     0.17282802    -0.27976904     0.50402151    -1.24855284
O       4.45234498     5.51588198     0.80792301    -0.04014419     0.70758611     0.25567445
O       4.36531199     0.94433300     1.18282001     0.23007499    -0.78672701    -1.01214753
O       1.46484698     5.56991002     0.75022702     0.31258635     0.64298377     0.47898538
O       1.42908402     0.90549303     1.10316502     0.16923290    -0.49696074    -0.57235863
O       4.44598300     8.50845801     3.85857101     0.12772860     0.03108825     0.24415513
O       4.45060901     3.86019198     3.67870498    -1.12115746    -0.13764972    -0.10676150
O       1.43819698     8.36567102     3.91647099    -0.28599651     0.70520192    -0.12710845
O       1.45623499     3.78997800     3.69549498     1.02182080     0.53982671     0.20334348
O       2.94591298     6.08139201     3.16772598     0.35963190    -0.44785523     0.09618423
O       2.92343501     1.57136501     3.39207898     0.05833064    -0.12845390    -0.14073633
O       0.00514699     5.83614597     2.99061898     0.14855197     1.10943991     0.39364118
O       5.90328401     1.69823801     3.30217701    -0.05800874    -0.85177260     0.10814064
O       3.00951902     7.67710902     1.36819402    -0.03971327     1.67261173    -0.55878988
O       2.99086600     3.17004103     1.23753302    -0.53704606     0.61150035     0.72251754
O       0.00810599     7.82346399     1.51132102    -0.52976880     0.79579349    -0.36376778
O       0.05021601     3.41325502     1.34673202    -0.85747274    -1.00802322     0.58804494
