# total energy = -19071.95537659 eV

CRYSTAL
PRIMVEC
        5.17600016     0.00000000     0.00000000
        0.00000000     5.50899976     0.00000000
        0.00000000     0.00000000     9.26300011
PRIMCOORD
22 1
Ti      1.73937800     3.38682298     3.22361101     0.06152292     0.16406010     0.10593206
Ti      3.79243502     2.33697601     6.01383798    -2.55355659     0.00000360    -0.75268456
Ti      4.26419500     2.08535800     1.17989201     1.09851940     2.23624943    -0.40008720
Ti      0.90677702     3.23839099     8.21948501    -1.33235567    -0.65703434     0.25688698
Ti      1.72292799     0.47528102     1.32399598     0.86646749     0.38197017    -1.29093132
Ti      3.13085497     5.15135500     7.98663500     2.59338299    -2.06754206    -0.63968273
Ti      0.64313001     0.25381997     6.05865802     0.84724977     1.25377218    -2.45649843
Ti      4.29985800     5.03757898     3.46444498     1.72066798    -1.22142178     0.99560839
O       3.32884701     3.39367800     4.36090701     0.60519343     0.01097296     2.19104299
O       1.08307502     2.13400997     0.43962998    -1.07682931    -0.32938338    -1.03054687
O       4.37795700     3.79836699     8.89077598     0.77886765    -0.19463104     1.00237194
O       3.34023401     0.82487700     0.11447702     0.87589932     0.86536525    -0.51307771
O       1.53072298     4.94553802     8.76774301    -2.08722309     0.96348244     1.21708741
O       4.52999401     1.03337299     4.67609700    -0.10064587    -1.40060845     0.01948254
O       1.02853700     4.70679600     4.29135201    -1.60370485     0.40703124     1.91221086
O       5.13815801     3.47707401     2.33185998     0.68151845    -0.41381715     0.79959641
O       0.34186200     2.23687198     6.47057499     0.85948977    -0.01420664     1.85124433
O       2.73588200     1.85839901     2.30367399    -0.41563415    -0.21724184     0.53699695
O       2.65689599     3.08984702     7.70362799     0.28637883     0.04911117    -3.67758571
O       5.14851702     0.59842798     1.89132400    -0.22199813    -0.78809535     1.69462141
O       2.51389902     0.66722203     6.33225298    -0.23752451    -0.41934811     0.90218706
O       2.81055700     4.65789197     2.42549202    -1.64568558     1.39131211    -2.72417506
