# total energy = -19518.09495935 eV

CRYSTAL
PRIMVEC
        5.17600016     0.00000000     0.00000000
        0.00000000     5.50899976     0.00000000
        0.00000000     0.00000000     9.26300011
PRIMCOORD
23 1
Ti      1.90439197     3.29110397     3.41377298    -0.86149163    -0.81702053     2.60782642
Ti      3.29220101     2.20095502     5.80521800     0.93429861     0.23611426    -2.67239790
Ti      4.36427300     2.06943802     1.53066298     2.42931389    -1.09283006    -0.68682264
Ti      0.80224102     3.35669502     7.80490400    -0.12001631     0.18307855     0.63791690
Ti      1.99464802     0.36766198     1.35417501     0.47649578    -1.31239953    -1.21919675
Ti      3.21032300     5.15543898     7.95362397    -0.42890696    -0.00756265     0.77739930
Ti      0.70135899     0.54526000     5.88120499    -0.54649409     0.12555756    -2.83000890
Ti      4.51237802     4.90211199     3.39938698     0.60005251     0.86825800     2.42972990
O       1.65829698     1.85201697     4.74576397     0.67288314     0.84020391    -0.60858292
O       3.50552898     3.59772801     4.49335600     0.07906711    -0.00003034     0.24421812
O       0.15942301     2.50443701     0.01704199     0.38205964     0.59352936    -0.48134746
O       3.59463200     0.69225603     0.24341302    -0.39210135     0.08906407    -0.58072783
O       1.59167600     4.80835300     9.03581600     0.80356260    -0.19150252     0.36004199
O       4.32918501     0.85086500     4.67088402    -0.68524553    -0.27427305     0.19352006
O       0.94747599     4.71798899     4.47026699     0.51369657    -0.55199831     0.53845759
O       0.12894801     3.36747600     2.55238899     0.53291404    -0.25757527    -0.65538961
O       5.11063402     2.21256999     6.55859199    -0.52321557     0.15239731     1.03185402
O       2.69776298     1.90060598     2.29985301    -0.82154490     1.07255151    -0.30682811
O       2.52126998     3.43467998     6.99138002     0.14720574     0.68506246     1.58117298
O       0.35587498     0.69387399     2.16794299    -1.25561592    -0.04830899    -0.12652686
O       5.03975602     4.86232500     7.22643998    -1.19541995     0.27227504    -0.00873533
O       2.42883198     0.78694298     6.76327600    -0.03527272    -0.84103104     1.32235664
O       2.87522400     4.65339000     2.43655601    -0.70622496     0.27644023    -1.54792938
