# total energy = -19074.75070684 eV

CRYSTAL
PRIMVEC
        7.60600008     0.00000000     0.00000000
        0.00000000     7.60600008     0.00000000
       -1.89786986    -1.89786986     4.85670466
PRIMCOORD
22 1
Ti      3.87035102     6.78884801     0.98328002     0.33072781    -1.09742951    -0.08512129
Ti      3.89787898     2.96735402     1.26582400     1.33298430     0.73374838     0.24374041
Ti     -0.01477902     6.59338999     1.18420301    -0.11789104    -0.48437339    -0.48820511
Ti      0.03582900     2.69074498     1.08371998    -0.52709357     0.46556139     1.02284512
Ti      5.78951921     2.62504820     3.65320483    -0.55357826     1.16561211     0.15561093
Ti      6.06625124    -1.18464080     3.73049980    -1.87032655     0.60533870    -1.02240289
Ti      1.94973622     2.95393223     3.51334080     0.37558792     0.22147131     1.10022713
Ti      1.24373021    -0.59566075     3.83508882     1.92623906    -2.81824970    -1.38512989
O       3.83986999     4.90603901     0.86720102    -0.20832782    -0.41622550    -0.85264677
O       3.71794200     1.01907097     1.04951602    -0.47246429     0.35285781    -1.17991156
O      -0.00633499     4.61617900     0.81236900     0.52784639    -0.20351703    -0.82687120
O       7.10354501     0.80776198     0.64426002     1.77044558     0.40698084     0.80852020
O       5.49774220     4.59625923     4.11376584     1.66328248     0.27844363    -1.13564846
O       5.56378220     0.74146321     4.03663979     1.10108871     0.33448008    -0.87311636
O       2.00191125     4.92730421     3.89455379    -0.70904521     0.17653252     1.75090699
O       2.13028520     0.97023125     4.13760279    -0.80282443     0.98779198    -0.23886457
O       3.94534020     2.73497922     3.20046581    -1.05498958     0.25819593     0.15504298
O       0.08493522     2.69122722     3.21083980     0.20846384    -0.29368720     0.12315794
O       5.72957798     6.55381701     1.70175101    -0.73898494     0.00689313     1.62393430
O       5.80927800     2.90053100     1.56781598    -0.33614769    -0.24375301     0.78553376
O       1.80454300     6.74929302     1.87882398    -0.66235602     0.42045034     0.65218858
O       2.02444700     3.12954097     1.65589600    -1.18263642    -0.85712281    -0.33379051
