# total energy = -19517.97418987 eV

CRYSTAL
PRIMVEC
        7.60600008     0.00000000     0.00000000
        0.00000000     7.60600008     0.00000000
       -1.89786986    -1.89786986     4.85670466
PRIMCOORD
23 1
Ti      3.87633501     6.55557499     1.26984299    -0.46711408    -0.77608983    -0.74503964
Ti      3.79234802     2.77852098     1.12649099    -0.30181111     1.11922913     1.00670039
Ti      0.06947901     6.71061403     1.28600999     0.48685245    -0.58982131    -0.40106267
Ti     -0.04541801     2.85369199     1.16307598     0.93523192     1.19419610    -1.02784849
Ti      5.55167325     2.96657825     3.61305282    -1.00781702    -0.72695089     1.14102078
Ti      5.68744023    -0.97450377     3.67130783     1.23959589     1.91492518    -0.36171295
Ti      1.84631721     2.76351225     3.53521482     0.53606287     1.10177468     0.96871515
Ti      1.88985823    -1.05037779     3.65971181    -0.57362901    -0.81759671    -0.18054627
O       3.68196498     4.73842799     0.63605999     0.33351720     0.22505954     1.16924148
O       3.91822198     0.84061298     1.00594902    -0.11850450     0.74185584    -1.21303664
O       0.09897297     4.69251202     0.62943999     0.21943448     1.74662610     1.04636713
O       0.17743202     0.93211900     0.82957800    -0.55378472     0.50934190     0.08543650
O       5.82738920     4.87914924     4.06932982     0.01645018    -2.23851046     0.09651951
O       5.55503321     0.96934620     4.08254179     0.16286865    -0.38752915    -1.16549409
O       1.58294124     4.68851721     3.93665281     0.31845593     1.02383011     0.89573976
O       2.07454125     0.91955025     4.06807181    -0.36226009    -0.68725484     0.24011027
O       3.64316221     3.12650720     3.30328780     2.38314149    -0.72420598    -0.92838996
O       3.86712722    -0.90644475     3.18559482    -0.23471969    -0.76459726     0.10695202
O       0.10662721    -0.68113780     3.35606180    -1.33033169    -0.23093066    -0.54706231
O       5.87566901     6.45531802     1.59702302    -1.79675312     0.18914430     0.67576124
O       5.77125900     3.09288100     1.69628201    -0.64779688    -0.66745143    -0.02843461
O       1.86626698     6.49467801     1.74513799     1.53428838     0.06908814    -0.26375852
O       1.90375701     3.04895897     1.61880200    -0.77137803    -1.22413198    -0.57017782
