# total energy = -19073.42874198 eV

CRYSTAL
PRIMVEC
        5.93400000     0.00000000     0.00000000
        0.00000000     9.29699974     0.00000000
        0.00000000     0.00000000     4.64899994
PRIMCOORD
22 1
Ti      4.43492600     6.86820899     2.26782699    -1.47950201     0.19270014     0.17269078
Ti      4.46748199     2.42726101     2.03492201    -0.02039734     0.75842841    -0.06469772
Ti      1.45893998     7.14455699     2.56764300     1.82645528     0.48182183    -0.20677128
Ti      1.66051598     2.37601199     2.24955498    -0.90775068    -0.42396067     0.30016664
Ti      2.94801000     4.46563400     4.50469500    -0.03689586     0.08319322    -1.44531327
Ti      2.92959902     0.08808399     4.53780398     1.71114898     0.35661034     0.48594382
Ti      5.80356199     4.79559300     4.53475402     1.05284502    -0.84031679     1.47408778
Ti      5.88089299     9.21517402     0.28702802     0.23852647    -0.61420309    -1.16199148
O       4.21822802     5.29121999     0.93192897     1.14678803     2.14708405     2.45204862
O       4.54189902     0.88828799     0.92612798    -1.16986857     1.64664589     0.84512295
O       1.40780098     0.75468502     1.10272199     1.11359404     1.01901238     0.30217004
O       4.45259401     8.30479298     4.02779300    -0.53336526     0.11672401    -1.65737614
O       4.62247102     3.77453502     3.75029901    -1.18469253    -1.68857880    -2.41899245
O       1.48725203     8.39538300     3.90495599    -0.54667253     0.26606197    -0.88558133
O       1.47728598     3.63401501     3.64428899    -0.95581387     0.69098475     0.25933313
O       2.72720799     6.11476002     3.47843902     0.84366719    -0.88189745    -0.90703694
O       3.26188699     1.54390500     3.25853603    -0.76675981    -1.19306301     0.56814793
O       0.00115699     6.18316798     3.28411899     0.25150926    -1.11852953     0.60511810
O       3.17904302     7.97605802     1.64417499    -1.87136656    -0.15738088    -0.50976176
O       2.89464501     2.91542401     1.06757102     1.29317590     1.17970664    -0.10008640
O       5.91310502     7.88538001     1.46226698     0.23706557    -2.04340608     1.18915854
O       0.11519702     3.16765602     1.32738499    -0.24169047     0.02236295     0.70361992
