# total energy = -18969.23011980 eV

CRYSTAL
PRIMVEC
        7.60600008     0.00000000     0.00000000
        0.00000000     7.60600008     0.00000000
       -1.89786986    -1.89786986     4.85670466
PRIMCOORD
22 1
Ti      5.98112001     5.16263103     0.47134400    -7.11718412     4.07221086    -0.42248486
Ti      5.24765124     2.92812421     2.70071579   -17.92338944    -0.16579585   -10.35211337
Ti     -0.83557077     4.07546521     4.66698382     4.52100942    14.13625413    -3.85155870
Ti      0.45515800     3.97697601     1.52590297    10.13759922    -2.61854201    16.60916803
Ti     -1.60569978     2.29944020     4.68969479    30.08717605    56.16786124    83.07628049
Ti      5.30406725     1.65012024     3.83086080   -77.84310042   -73.04338357   -65.31143432
Ti     -0.48752978     2.03395425     3.73618882    43.90316522     3.79893231   -31.02241312
Ti     -0.82877375     0.00351125     4.24315581    -3.53942563   -14.67240004     1.23207978
O       3.73344001     4.89361901     1.25013701    -0.57175391     0.53225609    -1.39377060
O       5.42306699     6.18152901     1.57182498    -0.77012282     1.53041656     1.79593834
O       0.66742899     5.83019501     1.34756902    -2.31687360     1.34566627     9.02977807
O      -0.76546177     5.85313124     4.43256581     0.70077834    -0.12695187    -0.71260850
O       6.42631302     3.71914699     2.02748802    17.55903288    18.72112283    21.34968238
O       6.29425123     0.39461721     2.44006181     1.15308183     2.63457902     2.46115702
O       0.93520823     3.93530123     4.62846183     2.23791679    -0.69344272     1.38054973
O       2.14042900     3.68501198     0.72398798     2.73456772     0.14385842     2.63383263
O       3.64664325     2.34791723     2.44782579    -1.06093166    -1.02838097    -0.39679207
O       1.05615222     2.73474125     2.77992484    -0.50853251     1.60374162    -3.03582501
O       4.75275620     4.06692820     3.79063682    -0.79962109     6.91351924     5.00487399
O       6.03147101     3.34254799     1.09421801   -13.48697063   -13.05490430   -28.47103683
O       0.60438625     0.91280223     4.08897579    11.18308240    -7.81006762     0.33172668
O       4.81686624    -0.30109180     4.59857883     1.72049623     1.61345062     0.06496974
