# total energy = -19072.26238046 eV

CRYSTAL
PRIMVEC
        7.60600008     0.00000000     0.00000000
        0.00000000     7.60600008     0.00000000
       -1.89786986    -1.89786986     4.85670466
PRIMCOORD
22 1
Ti      3.96600098     6.55098702     1.31349302     0.13521257    -0.08017500    -0.14989511
Ti      3.59804398     2.69585799     1.25047003     1.22323132     0.47312584    -0.63252555
Ti      0.03931602     6.75129299     1.07767698     0.47045215    -0.57981946     0.70538987
Ti     -0.17029400     2.68943902     0.94987502    -0.24320125     2.74014495     2.83058020
Ti      5.81860724     2.93951221     3.60016783    -0.48517917     0.05476118    -1.25771343
Ti     -1.32489875    -0.59030177     3.70578679    -1.19571897    -1.76223322    -0.72326599
Ti      1.87244623     2.98398522     3.72551182    -1.02916593    -2.04589645     2.41573358
Ti      1.72093522    -0.96566879     3.96536184    -0.81135021     0.98467554    -2.37244364
O       3.81373297     4.65170298     0.97927102    -1.06183026     1.64993510    -0.96806261
O       4.11096601     0.79188899     0.93681101    -0.79535872     0.71855598     1.02048459
O      -0.17544602     4.50265502     0.66475701     1.09170598     2.96729789    -0.67986241
O       7.04821800     1.04346700     0.46864202     0.02582186    -2.62354667    -0.23945875
O       5.59263824     4.79826725     4.13965382     0.93763231    -0.25128455    -1.82434415
O       5.41903921     1.04781324     3.63640880     1.42349796    -1.19980419     0.79040060
O       2.24241521     4.76096623     4.16073979    -0.70776326    -0.35542918     0.35355664
O       1.80053321     0.94110925     4.12455179    -0.15352551    -0.45261383     0.28249518
O       3.52022121     2.69799624     3.16150979     0.46278460     0.48299682    -0.67836937
O       0.07462024     3.04688021     3.09014881    -0.49228930    -0.41886963    -0.25854689
O       5.90125002     6.56408098     1.73307301    -0.43806395     0.04279011     1.80317239
O       5.49201100     2.91112502     1.61514898     1.20023640    -0.32028270     1.03709958
O       1.85531301     6.77756199     2.09378499     0.54206382    -0.83807453    -1.45324718
O       1.69076899     2.16168002     0.95221202    -0.09919268     0.81374597    -0.00117808
