# total energy = -19957.79352764 eV

CRYSTAL
PRIMVEC
        7.60600008     0.00000000     0.00000000
        0.00000000     7.60600008     0.00000000
       -1.89786986    -1.89786986     4.85670466
PRIMCOORD
24 1
Ti      3.75842199     6.61567201     1.30104000     0.38043265     2.54678378     1.75747796
Ti      3.76693000     3.07920701     1.16716498     0.25232584    -2.53923785    -0.60369499
Ti     -0.02340001     6.56156601     1.17240400    -0.68089033     1.92220706     2.10984547
Ti      0.07613802     3.01055600     1.08336400     0.42831201    -1.78348365     0.03299421
Ti      5.63310125     2.82615323     3.59303082    -0.96062158    -0.19761763    -3.93259707
Ti      5.93787120    -1.10848177     3.80211081    -1.67044094     1.77512988    -0.90695800
Ti      1.75454522     2.90906922     3.52604280     0.76942887    -1.05560408     0.21348495
Ti      1.89980925    -1.03732976     3.77952479     1.94920494     1.06852542     0.84963087
O       3.48732602     4.88160102     0.55964601    -0.25487921    -1.81336862     2.51200214
O       3.69849097     1.00198400     0.85608798     1.05315098    -0.45572666     0.19976836
O       0.45518202     4.88617100     0.39902298     0.62141221    -2.52976307     3.64902306
O       0.11458503     0.71671798     0.97023702    -0.68484032     2.14814026    -0.92296673
O       5.46861221     4.84565020     4.13222682    -0.11719581    -3.49519184    -0.93027072
O       5.69370321     0.91100721     4.01155282    -0.00107061     1.22891655     0.19699465
O       2.00315624     4.77381921     4.18505882     0.46328005    -0.50677722    -1.28106214
O       1.69101924     1.00202422     4.14224282     0.40632341     0.71510093    -0.73284849
O       3.63764522     3.02580022     3.14605580     1.44321808    -0.29442510    -0.12116611
O       4.07032123    -0.98056375     3.23804681    -2.33152349     0.34452384    -0.08439109
O      -0.02598176     3.12629225     3.01085684    -1.07732039     0.51452858     0.38939680
O       0.14478925    -1.29987978     3.43824679    -2.27346385     0.17756739    -1.02841131
O       5.73613100     6.47945998     1.66548501     1.96261582    -0.47976443    -0.35486250
O       5.68142100     2.89916699     1.51563799    -0.35604033     0.57455564     0.07845236
O       1.92079298     6.76391302     1.90251900     0.53333775    -0.69266625    -1.63783909
O       1.76471299     2.35018999     1.50213699     0.14524373     2.82764760     0.54799716
