# total energy = -4962.38869843 eV

CRYSTAL
PRIMVEC
        4.89465154     0.00000000     0.00000000
       -0.00000693     2.63558192     0.00000000
       -2.44735295    -1.31785026     5.28035855
PRIMCOORD
6 1
Ti     -0.00020950     1.97677726     1.32008943    -0.01666204    -0.01934756    29.51381264
Ti      2.44750079    -0.65904544     3.96026871     0.01666204     0.01934756   -29.51381264
O       0.00005196     0.65888516     0.86012720     0.01503993     0.01754264   -20.84732335
O       2.44723923     0.65884655     4.42023104    -0.01503993    -0.01754264    20.84732335
O      -0.00001999    -0.65890302     3.50030648    -0.00179103     0.00017458    -1.42864557
O       2.44731107     1.97663473     1.78005176     0.00179103    -0.00017458     1.42864557
