# total energy = -19922.78403292 eV

CRYSTAL
PRIMVEC
        6.28039185     0.00000000     0.00000000
        1.96117642     6.39005464     0.00000000
        0.00000000     0.00000000    11.37202143
PRIMCOORD
24 1
Ti      3.43853128     3.78674050     4.21893884    -0.13698149    -2.09270726     0.74300409
Ti      4.80303689     2.60331429     7.15308265     0.13698149     2.09270726    -0.74300409
Ti      6.21541800     2.60331649     1.46702647    -0.16708037    -0.70180961    -0.02718300
Ti      2.02615027     3.78673854     9.90499515     0.16708037     0.70180961     0.02718300
Ti      2.45794321     0.59171328     1.46707206    -0.13698149    -2.09270726    -0.74300409
Ti      5.78362498     5.79834170     9.90494956     0.13698149     2.09270726     0.74300409
Ti      1.04556207     0.59171089     7.15303706     0.16708037     0.70180961    -0.02718300
Ti      7.19600612     5.79834408     4.21898444    -0.16708037    -0.70180961     0.02718300
O       2.67834720     2.25004691     5.80305549     1.82686743     2.08424138    -0.70479312
O       5.56322097     4.14000794     5.56896600    -1.82686743    -2.08424138     0.70479312
O       1.84302043     2.25007269     0.11708136    -0.57733140    -0.18151352     1.16830920
O       6.39854781     4.13998221    11.25493982     0.57733140     0.18151352    -1.16830920
O       4.58263288     0.94498053     0.11704446    -1.82686743    -2.08424138    -0.70479312
O       3.65893529     5.44507432    11.25497672     1.82686743     2.08424138     0.70479312
O       5.41795972     0.94495481     5.80309239     0.57733140     0.18151352     1.16830920
O       2.82360840     5.44510012     5.56892911    -0.57733140    -0.18151352    -1.16830920
O       1.42107984     3.88679352     3.07186670     0.53342800     1.96003674     1.96690493
O       6.82048833     2.50326133     8.30015480    -0.53342800    -1.96003674    -1.96690493
O       4.13664899     2.50320175     2.61418021     0.73240909     1.78163168     0.99440383
O       4.10491918     3.88685310     8.75784109    -0.73240909    -1.78163168    -0.99440383
O       0.44049168     0.69176612     2.61414389     0.53342800     1.96003674    -1.96690493
O       7.80107643     5.69828874     8.75787741    -0.53342800    -1.96003674     1.96690493
O       3.12433109     0.69182570     8.30019106    -0.73240909    -1.78163168     0.99440383
O       5.11723709     5.69822915     3.07183037     0.73240909     1.78163168    -0.99440383
