# total energy = -19518.56016442 eV

CRYSTAL
PRIMVEC
        7.60600008     0.00000000     0.00000000
        0.00000000     7.60600008     0.00000000
       -1.89786986    -1.89786986     4.85670466
PRIMCOORD
23 1
Ti      3.80043200     6.65355200     1.14027802     1.16991151    -0.68969894     0.17323945
Ti      3.85735898     2.78381598     1.18083803    -0.69633393     0.83248237     1.23814270
Ti      0.11672999     6.73289900     1.22897903    -1.00185232    -0.50647974    -0.83348099
Ti     -0.02277902     2.84386998     1.12917302     0.02120955     0.27516599     2.09611706
Ti      5.56319921     2.84602421     3.74379379    -0.48772405     0.20072584     0.56534877
Ti      5.73318724    -0.98166079     3.51145783    -0.84242998    -0.07237632     0.54867233
Ti      1.91170923     2.84503422     3.66435280     1.05047421     0.54770174     0.44395178
Ti      1.93546320    -0.89154180     3.60701083     0.48626007    -1.17503315     0.36813686
O       3.91024898     4.68845900     0.81260099    -0.49495477    -0.29000743     0.14558620
O       3.70852899     0.90086098     0.76168202     0.25614625     0.95848499    -0.35408860
O      -0.20536898     4.76580497     0.92818198     0.90509935     0.12088689    -0.10833270
O       0.04670698     0.99250199     0.73679502     0.03854831    -1.86659151     0.41935865
O       5.66088422     4.72345423     4.05272683     0.86459058     1.13010850    -0.07845673
O       5.64929322     0.96140822     4.20213479     0.42972097     0.19500256    -2.71269379
O       1.82133221     4.74371521     4.09581281    -0.23938702    -0.01449409    -1.47163238
O       1.89534320     0.93030922     4.13550984    -0.25559423     0.24171361    -0.84083692
O       3.78790923     2.90909325     3.42997882    -1.09394901    -0.19550213    -1.13322237
O       3.82642524    -0.79329575     3.16701482    -0.64839621    -0.33494879     0.72754456
O       0.02198821    -0.76691278     3.18828679     0.24020412    -0.23624693    -0.45671114
O       5.64238301     6.66058497     1.56033299     1.69782500     0.27245785     0.69961157
O       5.63618899     2.65753498     1.82723200     1.47605030    -0.01940258    -0.81821969
O       2.00090602     6.47854498     1.50907900    -2.47303269     0.28385452     1.12000175
O       1.86763802     2.75564603     1.70795302    -0.40238602     0.34219725     0.26196388
