# total energy = -19959.54865548 eV

CRYSTAL
PRIMVEC
        7.60600008     0.00000000     0.00000000
        0.00000000     7.60600008     0.00000000
       -1.89786986    -1.89786986     4.85670466
PRIMCOORD
24 1
Ti      3.73186798     6.60740901     1.16839500    -0.34842806     1.31483976    -0.02384930
Ti      4.00452698     2.95110198     1.14837200    -0.46539941    -1.57127886    -0.09507686
Ti     -0.18828598     6.68412500     1.26922401     0.81896582    -0.26172092     0.43721343
Ti      0.04111802     2.87987901     1.36342503    -0.70023044    -1.13910557    -2.74878052
Ti      5.80255322     2.72903921     3.76248882    -1.87848903    -0.21121106    -0.39582328
Ti      5.56115023    -1.04081275     3.70650383     1.37735256     0.32817084     0.08031975
Ti      1.95931221     2.95961724     3.55599979     1.51817116    -1.80618367    -0.58869722
Ti      1.91539722    -0.95840879     3.59184980    -1.32309583     1.62545768     0.67570724
O       3.94262002     4.79148801     0.83094597    -0.91866553     1.76536071    -1.43733513
O       3.74534899     1.06535901     0.73059799     0.11293086    -2.58395475     0.00144393
O      -0.14215601     4.64456502     0.94192302     1.01620190     2.32127070    -2.35271325
O       7.18767002     0.96285102     0.82771900     1.18940793     0.08171792    -0.48530079
O       5.72487323     4.68647025     4.08202081    -0.09489020    -0.02047884     0.64632210
O       5.78686020     0.88688324     3.89324879     0.29283719     0.50211015     1.09680422
O       2.05285122     4.77508923     3.93363782    -0.28193596    -0.96490632     1.13335375
O       1.87795222     0.93414824     4.05261380     0.39790124     1.24061379    -1.10875831
O       3.97836822     2.59949021     3.00408284    -0.95082490     0.61418278     2.23443346
O       3.79353825    -1.07032079     3.04886081    -0.80369064     0.30234745     1.57186713
O       0.08684921     2.74688222     3.13949279    -1.08650849     0.04669639     2.82856008
O      -0.02444476    -1.03468075     3.19187880    -0.41035079    -0.03916923     0.56666620
O       5.64496302     6.73624700     1.76445899    -0.40763210    -0.47295357    -1.43593208
O       5.74126100     3.23145803     1.48307698     0.62574221    -1.62593256     1.05163918
O       1.79619502     6.50663800     1.66825298     1.15489780     0.73255230    -1.47800254
O       1.88269100     3.05380698     1.65867598     1.16573244    -0.17842511    -0.17406195
