# total energy = -39482.88139129 eV

CRYSTAL
PRIMVEC
        7.60629642    -0.00000847    -0.00005503
       -0.00000847     7.60629642    -0.00005503
       -3.80314186    -3.80314186     9.70738094
PRIMCOORD
47 1
Ti      1.90154683     4.66320605     6.11802631    -0.00002263     0.03555760    -0.00149073
Ti      3.84090179     6.65571616     1.16877560    -0.00906828    -0.00017921     0.03104377
Ti      1.90147716     1.04131585     6.11815594    -0.00009385    -0.03484000    -0.00111689
Ti      3.79095326     2.85251984     1.23289165    -0.04735305    -0.00017972     0.04155958
Ti     -1.90163757     4.76438740     6.05949680    -0.00005811     0.05614546     0.02983484
Ti     -0.03785206     6.65568475     1.16881668     0.00884537    -0.00015247     0.03078794
Ti     -1.90169318     0.94071370     6.05948494    -0.00008613    -0.05627247     0.03011406
Ti      0.01183446     2.85253100     1.23298610     0.04733480    -0.00005271     0.04162849
Ti      3.81081748     0.93608238     8.50560857    -0.01709630    -0.00748603    -0.04096052
Ti      5.70504374     2.85223116     3.64258786     0.00013858    -0.00015658     0.01181705
Ti      3.81085622    -2.83786402     8.50560688    -0.01698214     0.00770020    -0.04096232
Ti      5.70470378    -0.95096881     3.63836296     0.00019309    -0.00002160    -0.10070861
Ti     -0.00750755     0.93608136     8.50564137     0.01717189    -0.00739758    -0.04103636
Ti      1.90191222     2.85210786     3.70138271     0.00026174     0.00005039     0.05040367
Ti     -0.00738746    -2.83790400     8.50558636     0.01719554     0.00767552    -0.04088904
Ti      1.90154854    -0.95088946     3.46376202    -0.00012701    -0.00009410     0.00112923
O       1.90164912     2.85226553     5.69888724     0.00027511     0.00065435    -0.04430604
O       3.80099343     4.74888005     0.78604982    -0.00381886     0.00502728     0.01122750
O       3.80104886     0.95589153     0.78607599    -0.00378852    -0.00514272     0.01109586
O      -1.90154788     2.85239763     5.68359351     0.00005914    -0.00005862    -0.00409757
O       0.00220637     4.74886337     0.78610393     0.00370856     0.00501828     0.01123187
O      -1.90158803    -0.95075983     5.61568867     0.00003445    -0.00015272     0.00082918
O       0.00218889     0.95590909     0.78612520     0.00374044    -0.00504862     0.01108994
O       3.77969316     2.85237515     8.87600100     0.01027773     0.00015889     0.02812685
O       5.70467971     4.74880499     4.06301717    -0.00001800     0.02394958    -0.00774828
O       3.83425996    -0.95080172     8.93773831     0.01785992     0.00004551    -0.00300536
O       5.70467146     0.95592731     4.06305168    -0.00005991    -0.02389867    -0.00774519
O       0.02344972     2.85238748     8.87597957    -0.01008258     0.00010207     0.02810371
O       1.90136583     4.87009184     4.13370947    -0.00047591     0.00223763    -0.01041683
O      -0.03117012    -0.95080864     8.93774664    -0.01766529     0.00007328    -0.00293157
O       1.90137657     0.83463969     4.13358501    -0.00051551    -0.00250374    -0.01088991
O       1.90157653     0.91840531     8.09252874     0.00007765    -0.02780649     0.02835182
O       3.78420859     2.85240899     3.26603778    -0.01883797    -0.00001311     0.01759767
O       1.90161476    -2.82006258     8.09253190     0.00006402     0.02773039     0.02774607
O       3.82299907    -0.95070817     3.17133223     0.01175200    -0.00020620     0.00597679
O      -1.90156414     0.97764139     8.05046814    -0.00003240     0.01791211     0.00083818
O       0.01887119     2.85240943     3.26601000     0.01865773    -0.00000283     0.01742926
O      -1.90153646    -2.87912173     8.05044549     0.00001440    -0.01795608     0.00082584
O      -0.01992016    -0.95070162     3.17138246    -0.01172835    -0.00019849     0.00606138
O       3.77950585     4.88390074     6.47107357     0.01506770     0.00322776    -0.03250313
O       5.70469823     6.65544174     1.58339451    -0.00009976     0.00000823     0.02239715
O       3.77951778     0.82078492     6.47113780     0.01538292    -0.00331210    -0.03266768
O       5.70469351     2.85235029     1.66947182     0.00009565     0.00002134    -0.01116271
O       0.02367243     4.88390747     6.47110280    -0.01492397     0.00331441    -0.03254684
O       1.90155275     6.65549990     1.56432920    -0.00001646    -0.00006428     0.01152806
O       0.02361143     0.82077538     6.47116008    -0.01531118    -0.00338460    -0.03270059
O       1.90158375     2.85234451     1.67728278     0.00005374    -0.00002854    -0.00888985
