# total energy = -19073.86637130 eV

CRYSTAL
PRIMVEC
        5.93400000     0.00000000     0.00000000
        0.00000000     9.29699974     0.00000000
        0.00000000     0.00000000     4.64899994
PRIMCOORD
22 1
Ti      4.41870301     6.77854398     2.47805800    -0.72051722     0.32375960    -1.09975790
Ti      4.39764398     2.39152202     2.19318802     1.44699786    -0.56925376     0.40478563
Ti      1.47337800     7.30854003     2.43424001     0.87453433     1.14610411     0.25976842
Ti      1.58297098     2.34336800     2.22042499    -0.00812212    -0.46989884    -0.69556414
Ti      3.07736801     4.64048998     4.57145500    -0.64769249    -0.08710052     0.10722404
Ti      3.09056998     9.26519799     4.57126000    -1.24269047     0.45661575     0.81608593
Ti      5.92649701     4.59217001     4.39408801    -0.30691835    -0.89465219     0.63220391
Ti      5.83345400     9.17354603     0.22375397     1.15372075     0.04487605     1.26148549
O       4.38538702     5.44943599     0.91050000     0.24187019     0.81367860     0.68157245
O       4.45874199     0.98877399     0.85559500     0.16676130    -0.33267542     0.15282669
O       1.48878399     0.67902300     1.17539798    -0.80935812     1.72869316     0.35126939
O       4.41010801     8.09759199     3.91955900     0.09266413     1.70594661     0.23376247
O       4.33130902     3.99504000     3.41271600     0.88422764    -0.85788848    -0.07854543
O       1.41645002     8.50567200     4.00787101     0.49138505    -1.44335332    -2.82108228
O       1.45086400     3.74095602     3.63264302     0.05621693     0.05903075     0.10273849
O       2.74824501     6.10609400     3.17911398    -0.24894510    -0.53923998     0.49488689
O       2.98078798     1.43863403     3.35533202    -0.01205436     0.38372006    -0.78009073
O       0.03911800     6.24744201     3.46891399     1.00486745    -0.84379909    -0.59378467
O       3.12625600     8.06070902     1.62805101    -1.26645287    -1.28065102     0.14286443
O       3.10571599     3.11245299     1.24327898    -2.63499245     1.29533974    -0.92041516
O       5.76566099     7.84143300     1.46556301     0.79385899    -0.86574321     0.92808888
O       5.87813000     3.11695502     1.25018400     0.69063816     0.22649139     0.41967695
