# total energy = -39021.51471291 eV

CRYSTAL
PRIMVEC
        7.60600008     0.00000000     0.00000000
        0.00000000     7.60600008     0.00000000
       -3.79573973    -3.79573973     9.71340985
PRIMCOORD
46 1
Ti      1.80351846     4.03761845     6.31666760    -0.48487167    -2.35442226     3.13124229
Ti      3.78710298     0.09673000     1.47964600     1.62912999    -0.14035503    -3.32194288
Ti      2.09778345     0.49680245     6.11705861     0.59423564     2.96669728    -0.56366444
Ti      4.00014402     3.36779901     1.43997501    -0.17966541    -1.60906483    -0.39348640
Ti     -1.80112753     3.96384844     6.62331465     0.43421758     0.91540177    -2.52828623
Ti      0.01135498    -0.17807598     1.52248200    -0.33237897     0.95231665     0.57795849
Ti     -2.10909853     0.75685746     6.36457163    -0.23529202    -0.63236229    -2.63671458
Ti     -0.02182099     3.93213300     1.07327000     1.57730475    -0.65214873    -1.73463601
Ti      3.83014345     2.48386445     8.19041762    -1.78559890    -2.66377905     4.35673232
Ti      5.78259202     1.74074899     3.52130100     0.92797344    -2.03205902     0.18747694
Ti      3.65607345    -2.12982053     8.75075462     1.88244776     0.93577982     0.40604059
Ti      5.36903100     5.67640001     3.40440998     3.06256990     0.68384582     2.87262032
Ti     -0.02193657     1.70845547     8.17615761     1.44882822     1.27121584     2.75485450
Ti      2.00843298     1.35875303     3.12436700    -2.86014661     1.68862636    -0.44219648
Ti     -0.06149855    -1.52711654     7.99287961     0.02144661     0.56500013     2.39470940
Ti      1.98735501     5.72711800     3.27660002    -2.67916634     0.43510821    -2.03749357
O       1.91392346     5.17840247     5.00473565     0.31576604    -0.20120869    -0.49284723
O       3.35414401     1.82510699     0.67559901    -0.31197674    -1.22758909    -2.33261904
O      -1.73292754     2.29532844     5.31173862     0.36628823     0.49495400    -0.80832042
O       0.22347102     5.68955202     0.23637602    -0.24225200    -1.35935612     2.79013005
O       5.44701644     5.30175744     5.20056261     0.37222928    -2.19434660     1.11868200
O       0.80892701     1.71310001     0.84753700    -1.90861106    -0.47999968     0.39589296
O       3.24275644    -3.69689455     9.52111864    -1.36564298    -0.26073027    -0.20502447
O       4.91562802     3.83846502     3.25174202     0.18960890     0.67490455    -1.38094696
O      -3.39809853    -0.31547754     9.03351461    -1.26979479    -0.15214046    -0.89560812
O       5.68249502    -0.12261598     4.53217502    -0.82182926     2.74675603     0.89886468
O       3.70585897     6.58575000     0.00775398     0.48945595    -0.62689380    -1.33642367
O       1.53430943     1.96043243     5.28477561     0.49306861     2.44087718    -0.42168833
O      -0.28631553     0.13893046     9.35281360     0.88267933     0.83099293    -2.21215021
O       2.26036798     0.05040699     4.21822802     0.56031121    -3.07148494     1.43901098
O       1.92100745     2.12665245     7.81991565    -1.31904660    -1.03956476     0.31793399
O       3.99198400     1.60533698     2.72575598    -1.19018698     1.15558454     3.00045202
O       1.91551147    -2.23904753     7.81989062    -0.29388568     0.54689493    -0.10980106
O       3.78120201     6.30492399     2.81480000    -0.54842936    -2.27197826     0.84023091
O      -1.83681657     2.20551346     7.64107363     0.92587696    -0.02442086     1.99602526
O       0.02607801     1.45540900     3.28860398    -0.55322062     0.14482644    -1.16341073
O      -1.78728457    -2.21797553     7.85423565     0.55914290     1.28837873     0.39163829
O       0.01595702     5.92120698     3.02071498    -0.32855805     0.08804900    -0.74666535
O       3.98546147     3.98912242     7.34660163    -0.57776180     3.85308105    -3.21885729
O       5.67507998     0.02282400     1.93111902     1.33793290    -0.61147824     0.37308058
O       3.80907547     1.67260345     6.63974365    -0.41570177    -5.09736226    -3.98083639
O       5.63347802     2.91129600     0.98590601     3.02080077     1.19375079    -0.05947864
O       0.06549045     3.71362243     7.06927163     0.00039261     1.16220334    -1.14162525
O       1.96550703    -0.39928101     1.74193398    -1.82400039     0.66902289     1.42377590
O       0.60680247    -0.39650854     6.59340560    -1.29849654     0.41681789     0.91267254
O       1.54495500     3.99912102     2.00790598     1.73480648     0.58166011     1.58470028
