# total energy = -4986.20057563 eV

CRYSTAL
PRIMVEC
        3.46086487     0.00000000     0.00000000
       -0.00000770     3.46086487     0.00000000
       -1.73045958    -1.73046343     4.41683328
PRIMCOORD
6 1
Ti     -0.00015241     2.59577974     1.10420820     0.00231039    -0.00227851    -0.00083329
Ti      1.73054990    -0.86537839     3.31262479    -0.00231039     0.00227851     0.00083329
O       0.00003457     0.86521034     0.71946600     0.00069523     0.00406903     2.18989216
O       1.73036283     0.86519091     3.69736704    -0.00069523    -0.00406903    -2.18989216
O      -0.00001955    -0.86519531     2.92788260     0.00406749     0.00062298     2.18868246
O       1.73041690     2.59559652     1.48895045    -0.00406749    -0.00062298    -2.18868246
