# total energy = -19518.18004054 eV

CRYSTAL
PRIMVEC
        5.93400000     0.00000000     0.00000000
        0.00000000     9.29699974     0.00000000
        0.00000000     0.00000000     4.64899994
PRIMCOORD
23 1
Ti      4.49889601     7.03492602     2.25791402     0.44920557     1.03394587     0.08684804
Ti      4.41614502     2.26987300     2.33264602     0.95471781     0.08389667     0.03989454
Ti      1.41675302     7.01959999     2.22440303    -0.48249725     0.94847928    -0.08824158
Ti      1.47010700     2.30878600     2.37375600    -0.69558702     0.16375542    -0.16252232
Ti      2.97104900     4.58017298     0.22464601     0.52683415    -0.40401122    -0.35932440
Ti      2.96108602     9.23501102     4.58764899     0.10463391    -0.31485458     0.01063974
Ti      0.01434298     4.63343801     0.02422102    -0.50185715    -0.99319567    -0.36959956
Ti      0.01060799     0.08748999     4.61302700    -0.22265993    -0.42938493     0.15455138
O       4.47540599     5.61216498     1.01391800    -0.55504121    -0.73375121    -1.23230989
O       4.44285000     0.94350901     0.84531599    -0.30019723     0.09858667     0.39259140
O       1.46801500     5.50566102     0.95629499     0.58102942     0.84494323    -0.19822339
O       1.49065702     0.88527502     0.83352698     0.50346332     0.37547813     0.60849241
O       4.51156700     8.39385002     3.72546102    -0.88923718    -0.34482569    -0.31176463
O       4.48776202     3.72591299     3.81657899    -0.50502681     0.58389646    -0.48651692
O       1.45489702     8.36494001     3.56079800     0.68911504     0.48164005     1.35692771
O       1.50293102     3.60543097     3.91062998     0.11613472     0.96706142    -1.10580051
O       2.93412899     1.43333299     3.24542598     0.41370196    -0.32361845    -0.29723635
O       0.00041498     6.16274999     3.10091201     0.22200841    -1.39431105     1.54413597
O       0.01098202     1.39248199     3.21974500    -0.08712186     0.48977656    -0.68657273
O       2.97361800     7.87069999     1.39328502    -0.06247834    -0.06317126    -0.36194744
O       3.01626699     3.26188402     1.43108298    -0.39860007    -0.62255095     0.95206057
O       5.91200401     7.96822498     1.35814802     0.16234774    -0.36594422    -0.13636262
O       0.00528802     3.24112001     1.39826600    -0.02288848    -0.08184082     0.65028057
