# total energy = -19519.93601751 eV

CRYSTAL
PRIMVEC
        5.17575250     0.00001323     0.00000000
        0.00001429     5.50856584     0.00000000
        0.00000000     0.00000000     9.26345890
PRIMCOORD
23 1
Ti      1.83629268     3.36576047     3.40423464     0.00727442     0.01878783    -0.01981396
Ti      3.34079780     2.17802780     5.77063718     0.02025413     0.02561025     0.02055521
Ti      4.54302691     1.96411497     1.40906748    -0.04623694    -0.05196253    -0.03746664
Ti      0.88352069     3.29968910     7.94321979    -0.03871697    -0.02063928    -0.05174604
Ti      1.91953928     0.60531178     1.15886603     0.12411234    -0.11326742     0.04016270
Ti      3.20243713     5.14804036     7.95228197     0.02923962    -0.04062704    -0.02900951
Ti      0.68491269     0.65088508     5.69005005    -0.04463154     0.01770668     0.00735207
Ti      4.41056478     4.86046455     3.47724058     0.11724826    -0.01967100     0.07374441
O       1.59707134     1.91379621     4.67550499    -0.04147242    -0.05213145     0.00980979
O       3.51118941     3.56599383     4.52883532     0.06003168    -0.00403561     0.00384097
O       0.81157279     2.05397090     0.11264600     0.03730723     0.02668035    -0.05765984
O       3.57375902     0.87258270     0.09457809    -0.13747462     0.00981082    -0.09061445
O       1.73924657     4.66381678     9.16821376    -0.01515126     0.07604195     0.02924580
O       4.15173817     0.77150574     4.74121139    -0.01674277     0.06200758     0.00386154
O       0.93017267     4.63365614     4.56883699     0.01029830     0.05661314     0.00358772
O       0.15334399     3.37861152     2.44187043     0.03557457     0.02575218    -0.00679286
O       4.98699497     2.12429789     6.78192393    -0.08447054    -0.00451126     0.01494043
O       2.77488808     2.15071737     2.12164362    -0.06182528     0.08578875     0.02604657
O       2.54218967     3.38891125     7.15771484     0.01352864    -0.00942104    -0.00821596
O       0.23262096     0.56798202     2.20232547     0.00467015    -0.07442215     0.07109926
O       4.95182426     4.77129899     7.34993133    -0.02432959    -0.02045468     0.03723396
O       2.32549044     0.71320871     6.79354086     0.01100947    -0.01895187    -0.06150595
O       2.77999359     4.89141100     2.44904823     0.04050312     0.02529581     0.02134505
