# total energy = -4983.74987485 eV

CRYSTAL
PRIMVEC
        4.11200226     0.00000000     0.00000000
        0.00000000     2.76123900     0.00000000
        0.00000000    -0.00008850     5.47864921
PRIMCOORD
6 1
Ti      2.05600113     1.38057520     2.73932450     0.00000000     0.00000000     0.00000000
Ti      0.00000000     0.00000000     0.00000000     0.00000000     0.00000000     0.00000000
O       2.05600113     0.53810756     1.06770802     0.00000000    -0.89396005     1.05279489
O       2.05600113     2.22304289     4.41094098     0.00000000     0.89396005    -1.05279489
O       0.00000000     0.84243255     3.80703356     0.00000000     0.89401275     1.05180090
O       0.00000000     1.91871785     1.67161538     0.00000000    -0.89401275    -1.05180090
