# total energy = -4950.25464710 eV

CRYSTAL
PRIMVEC
        5.72373794     0.00000000     0.00000000
       -0.00000748     2.45303071     0.00000000
       -2.86190180    -1.22660410     6.21153275
PRIMCOORD
6 1
Ti     -0.00024457     1.83984920     1.55288313    -0.02327723    -0.01756090    40.00382846
Ti      2.86207295    -0.61342253     4.65864951     0.02327723     0.01756090   -40.00382846
O       0.00006081     0.61324265     1.01180792     0.01951777     0.01696903   -34.56227867
O       2.86176740     0.61318397     5.19972477    -0.01951777    -0.01696903    34.56227867
O      -0.00002393    -0.61328704     4.11757430    -0.00154498    -0.00009256    -1.46323669
O       2.86185208     1.83971360     2.09395840     0.00154498     0.00009256     1.46323669
