# total energy = -19960.33517327 eV

CRYSTAL
PRIMVEC
        7.60600008     0.00000000     0.00000000
        0.00000000     7.60600008     0.00000000
       -1.89786986    -1.89786986     4.85670466
PRIMCOORD
24 1
Ti      3.82324800     6.71038801     1.20275898    -1.02534398    -1.13173807    -1.32636911
Ti      3.76810900     2.72907402     1.25723000     0.19673446     2.52676722    -2.15548128
Ti     -0.10426501     6.71916802     1.27004900     1.55973254     0.05994452    -0.69483652
Ti     -0.04283700     2.87844298     1.27967802    -0.21377805     0.08711364     0.08883268
Ti      5.60883820     2.94209422     3.65278382     2.85564666    -0.66729691     1.17665269
Ti      5.59705120    -0.89350780     3.58417980     2.32706494     0.99914931     2.38154869
Ti      2.08506023     2.73548321     3.60921581    -2.69163336    -0.45508928     1.16253141
Ti      1.96461621    -1.00422977     3.58769279    -1.31568180     0.59907034    -0.36984227
O       3.85096599     4.63613797     0.74692300    -0.07212281     1.50424323    -0.27671688
O       3.90618400     1.02288100     0.74868098    -0.20359082    -3.61753835    -0.45294061
O      -0.13286498     4.77745301     0.81016698     0.19324573     0.99028260     0.53598599
O      -0.04032299     1.06628703     0.80117499    -0.37019528    -1.88037699    -0.16990936
O       5.52028923     4.84502022     4.08773783     0.21101103    -0.41688139    -0.04581399
O       5.63827824     0.99660920     4.11509783    -0.04164520    -0.35452363    -0.46384904
O       2.19253724     4.72469923     4.04224579    -0.60359035     0.12867502     0.27909952
O       2.15332325     0.86796621     4.04384983    -0.67974568     0.40851708    -0.61922189
O       3.87166624     2.58397124     3.09548080    -2.35068619     0.38975290     1.86132100
O       3.83405121    -0.90563379     3.22091681    -1.41037891    -0.11825999    -1.34537522
O      -0.03724476     2.79731223     3.24437979     1.15905245     0.44311514     0.18435176
O      -0.02435380    -0.88461476     3.24793682     0.83821054    -0.39281843    -0.47406943
O       5.68698001     6.75784400     1.60230701    -0.77228948    -0.13284406     0.28104456
O       5.64903498     2.86418499     1.80011601     1.01123813     0.31041017    -1.97294523
O       1.89732899     6.68621599     1.50834403     0.84976122    -0.07754759     0.94864640
O       1.88600402     2.66519402     1.50314100     0.54898446     0.79787377     1.46735611
