# total energy = -19942.29708152 eV

CRYSTAL
PRIMVEC
        5.88181897     0.00000000     0.00000000
        0.62447442     6.22880870     0.00000000
        0.00000000     0.00000000    10.54037669
PRIMCOORD
24 1
Ti      2.50193951     3.69118630     3.91040467     0.03774818    -1.27928833     0.74303803
Ti      4.00435407     2.53762245     6.62997238    -0.03774818     1.27928833    -0.74303803
Ti      5.32710075     2.53762456     1.35974175    -0.03272476     0.20957841    -0.37973871
Ti      1.17919284     3.69118449     9.18063548     0.03272476    -0.20957841     0.37973871
Ti      2.18970242     0.57678201     1.35978404     0.03774818    -1.27928833    -0.74303803
Ti      4.31659117     5.65202698     9.18059319    -0.03774818     1.27928833     0.74303803
Ti      0.86695566     0.57677971     6.62993016     0.03272476    -0.20957841    -0.37973871
Ti      5.63933786     5.65202922     3.91044695    -0.03272476     0.20957841     0.37973871
O       2.08152097     2.19326945     5.37867368     1.44410022     1.50124044    -0.27169140
O       4.42477260     4.03553936     5.16170337    -1.44410022    -1.50124044     0.27169140
O       1.29920165     2.19329464     0.10851909    -1.00085730     0.70745550     0.39032446
O       5.20709199     4.03551423    10.43185772     1.00085730    -0.70745550    -0.39032446
O       4.11253550     0.92113483     0.10848492    -1.44410022    -1.50124044    -0.27169140
O       2.39375807     5.30767398    10.43189189     1.44410022     1.50124044     0.27169140
O       4.89485489     0.92110969     5.37870792     1.00085730    -0.70745550     0.39032446
O       1.61143863     5.30769912     5.16166919    -1.00085730     0.70745550    -0.39032446
O       0.59354081     3.78871468     2.84721877     0.36738404     0.38649917     0.73302024
O       5.91275271     2.44009413     7.69315828    -0.36738404    -0.38649917    -0.73302024
O       3.39924922     2.44003612     2.42300327     0.56583934     0.79614008     0.08290628
O       3.10704436     3.78877263     8.11737366    -0.56583934    -0.79614008    -0.08290628
O       0.28130371     0.67431015     2.42296957     0.36738404     0.38649917    -0.73302024
O       6.22498980     5.55449860     8.11740730    -0.36738404    -0.38649917     0.73302024
O       2.79480726     0.67436816     7.69319191    -0.56583934    -0.79614008     0.08290628
O       3.71148632     5.55444065     2.84718514     0.56583934     0.79614008    -0.08290628
