# total energy = -4990.55173909 eV

CRYSTAL
PRIMVEC
        3.74610099     0.00000000     0.00000000
       -0.00000834     3.74610099     0.00000000
       -1.87307987    -1.87308404     4.78085801
PRIMCOORD
6 1
Ti     -0.00016497     2.80971763     1.19521437     0.00069548    -0.00069548     0.00000000
Ti      1.87317764    -0.93670079     3.58564332    -0.00069548     0.00069548     0.00000000
O       0.00003742     0.93651888     0.77876265    -0.00007533     0.00033064     0.25724565
O       1.87297515     0.93649785     4.00209509     0.00007533    -0.00033064    -0.25724565
O      -0.00002116    -0.93650262     3.16919160     0.00033064    -0.00007533     0.25724565
O       1.87303367     2.80951931     1.61166614    -0.00033064     0.00007533    -0.25724565
