# total energy = -4984.10443267 eV

CRYSTAL
PRIMVEC
        4.18543095     0.00000000     0.00000000
        0.00000000     3.15752829     0.00000000
        0.00000000    -0.00008348     5.53588064
PRIMCOORD
6 1
Ti      2.09271542     1.57872224     2.76794037     0.00000000     0.00000000     0.00000000
Ti      0.00000000     0.00000000     0.00000000     0.00000000     0.00000000     0.00000000
O       2.09271542     0.61533943     1.07886163     0.00000000    -0.24642902     1.73519574
O       2.09271542     2.54210506     4.45701912     0.00000000     0.24642902    -1.73519574
O       0.00000000     0.96334962     3.84680314     0.00000000     0.24585720     1.73585909
O       0.00000000     2.19409486     1.68907761     0.00000000    -0.24585720    -1.73585909
