# total energy = -19519.11468247 eV

CRYSTAL
PRIMVEC
        7.60600008     0.00000000     0.00000000
        0.00000000     7.60600008     0.00000000
       -1.89786986    -1.89786986     4.85670466
PRIMCOORD
23 1
Ti      3.78158202     6.60718199     1.25856501     0.60089634     0.19765054    -0.00918013
Ti      3.79358799     2.87523998     1.08531402     0.35240479    -0.25101150     1.44713387
Ti     -0.01731701     6.57497097     1.22775102    -0.24793517     0.97870621    -0.31841556
Ti     -0.01782100     2.85851099     1.15491702    -0.61977493    -0.78586466     0.02218734
Ti      5.68674622     2.88528223     3.64332679    -1.38107886     0.32458724    -0.38954798
Ti      5.71200623    -0.93469980     3.64736483     0.08962483    -0.24355092     0.82082447
Ti      1.93291225     2.92428222     3.63405782     1.63405468    -0.61605326    -0.50099069
Ti      1.87445822    -0.99793775     3.63899282    -0.11348854     0.46305791     0.12705214
O       4.02698500     4.72485602     0.77720601    -1.07206377     0.50768276     0.06935810
O       3.77608699     0.98681402     0.79355902    -0.16754986    -0.72583426     0.01750433
O      -0.20108100     4.76976301     0.72562600     0.62049124     0.09072578     0.93203655
O       0.09170800     0.93432001     0.85374103    -0.38863010    -0.10285188    -0.29527305
O       5.92387224     4.77365320     4.08940881    -0.19470997    -0.58133230    -0.12408586
O       5.64969423     0.97210723     4.12101382     0.52895016    -0.26390533    -1.37250834
O       1.82187022     4.73504723     4.08410080    -0.49016429     0.39165038     0.22809370
O       1.94285623     0.96997121     3.96351479    -0.59843400    -0.16540273     0.50515434
O       3.82447421     2.99487224     3.34777081    -0.55733644    -0.16073746    -1.47916288
O       3.84030820    -1.01703179     3.24771583    -0.99641932     0.00191702    -0.11597942
O      -0.05093077    -0.96891677     3.25869182     1.20359837     0.40036822    -0.37567276
O       5.68220302     6.63389301     1.62679998     0.03142352     0.41163480     0.06319594
O       5.71942799     2.81685299     1.66609399     0.16253672    -0.19466369     0.19816219
O       1.87911302     6.43630198     1.68327002     0.46968004     0.18544063    -0.02060354
O       1.79004402     2.96237600     1.62427602     1.13392479     0.13778624     0.57071698
