# total energy = -4989.41530642 eV

CRYSTAL
PRIMVEC
        3.25533512     0.00000000     0.00000000
        0.00000000     4.61484887     0.00000000
        0.00000000    -0.00006312     4.86991009
PRIMCOORD
6 1
Ti      1.62766756     2.30739271     2.43495504     0.00000000     0.00000000     0.00000000
Ti      0.00000000     0.00000000     0.00000000     0.00000000     0.00000000     0.00000000
O       1.62766756     0.89935371     0.94907374    -0.00000000    -0.09949582    -0.17991352
O       1.62766756     3.71543166     3.92083629    -0.00000000     0.09949582     0.17991352
O       0.00000000     1.40801343     3.38402977     0.00000000     0.09956369    -0.17997343
O       0.00000000     3.20677199     1.48588026     0.00000000    -0.09956369     0.17997343
