# total energy = -19518.86419354 eV

CRYSTAL
PRIMVEC
        7.60600008     0.00000000     0.00000000
        0.00000000     7.60600008     0.00000000
       -1.89786986    -1.89786986     4.85670466
PRIMCOORD
23 1
Ti      3.81024802     6.67465400     1.25973502    -0.04637449    -1.00178161     0.26355951
Ti      3.67799599     2.75024900     1.19852101     0.76911957     0.69949227     1.59338547
Ti     -0.00113302     6.69044301     1.17046499     0.04334830     0.49306269    -0.83469738
Ti     -0.01759001     2.93245499     1.05839101    -0.45508389    -0.57287928     1.25495335
Ti      5.66093322     2.90245821     3.55991083    -1.05783528     1.59459517    -0.16414006
Ti      5.75811323    -0.83506678     3.59547181    -0.52067429    -1.36208354     0.52640143
Ti      1.89822023     2.75167921     3.77429784     1.38384588     0.24578238    -0.66586660
Ti      1.88813724    -1.06198476     3.65697982     0.84189467     0.15426856    -0.25453108
O       3.87943800     4.64474398     0.79149200    -0.97757055     0.37910236     1.23086930
O       3.96209401     0.88007199     0.80370102    -0.78631846     0.56467411     0.52014542
O      -0.07446699     4.78554598     0.79513099     0.54734744     0.65006151    -0.20351112
O      -0.16529100     0.96280800     0.73660500     0.60311598     0.81103602    -0.41457357
O       5.83544725     4.83148524     4.04384782     0.33708846    -1.08582072    -0.23818657
O       5.81162522     1.08541620     4.01127182     0.33128728    -1.22732118    -0.79390527
O       1.93457323     4.69094523     4.16048679    -0.85802655    -0.18168527    -0.64511830
O       2.01871622     0.86563423     4.13997482    -0.78819742    -0.08202928    -0.51683692
O       3.77125221     2.79308124     3.28691580     0.42115920     0.04526737    -0.91299444
O       3.79734123    -1.13155480     3.31544682     0.41891616     0.80776635    -1.37497429
O       0.06005421    -0.81842077     3.32515383    -0.94256317    -0.32087199    -0.62726739
O       5.71559500     6.70104200     1.53706300    -0.13975031    -0.28496704     1.48362375
O       5.76146700     2.93276700     1.58797298    -0.13986138    -0.25169541     1.08273128
O       1.85151600     6.69720102     1.58880299     1.01206088    -0.19678022     0.68821592
O       1.77038202     2.76804502     1.78833901     0.00307221     0.12280699    -0.99728244
