# total energy = -19517.98379889 eV

CRYSTAL
PRIMVEC
        5.93400000     0.00000000     0.00000000
        0.00000000     9.29699974     0.00000000
        0.00000000     0.00000000     4.64899994
PRIMCOORD
23 1
Ti      4.45533102     7.04783800     2.25279503    -0.06719786     0.32751084     0.27812919
Ti      4.47004601     2.34956398     2.33484301     0.50401868    -1.13389857     0.23788292
Ti      1.37423601     6.97299000     2.19458003     0.12742701     0.26873000     0.50482164
Ti      1.49925699     2.33523698     2.33530201    -0.48724763    -0.62896277     0.68568878
Ti      2.97828502     4.53008598     0.21067599     0.31030938    -0.14046996    -0.02241360
Ti      3.00713402     9.29695201     4.60849201    -0.16373691     0.55849395     0.06967049
Ti      5.92309498     4.59319302     0.01353598    -0.03568821     0.02621446    -0.50201836
Ti      0.04825202     0.01891502     4.59801499    -0.24099319     0.48893093    -0.27109696
O       4.55460499     5.51329298     0.96730500    -1.27294079     0.78210442    -0.06073051
O       4.42626601     0.96491699     0.88715698     0.12160140    -0.20926679    -0.25976816
O       1.43985801     5.46652202     0.98489702     0.94944447     0.85200168    -0.03639552
O       1.49103998     0.86031499     0.78833101    -0.58934849     1.40123837     1.36558899
O       4.37117400     8.42519499     3.72024402     0.79016174    -1.21357451    -0.99840549
O       4.45660200     3.67586500     3.87655901    -0.53954440     0.40575622    -0.39966425
O       1.38024403     8.47048600     3.60843601     0.61532204    -0.81822766    -0.12576144
O       1.57166400     3.63859901     3.82266300     0.04278292     0.62745713    -0.06240250
O       3.02418200     1.41213299     3.18430701    -0.88234920    -0.10335787     0.06155892
O       5.92906199     6.14082602     3.25608101    -0.06977899    -0.33465825     0.05939173
O       5.89233999     1.49200398     3.18363099     0.97957396    -0.98111688     0.63811745
O       2.93120402     7.94990201     1.38262199     0.17181866    -1.31664648     0.62791093
O       3.01748102     3.26135802     1.54280902    -0.96620370     0.76782451    -0.69738345
O       5.90112000     7.81061499     1.31581098    -0.08626877     0.69822240    -0.46147488
O       5.91450802     3.35857000     1.55786999     0.78883763    -0.32430545    -0.63124617
