# total energy = -19072.58893544 eV

CRYSTAL
PRIMVEC
        5.93400000     0.00000000     0.00000000
        0.00000000     9.29699974     0.00000000
        0.00000000     0.00000000     4.64899994
PRIMCOORD
22 1
Ti      4.43380298     6.87268498     2.45277502    -0.49261969     0.16613703    -0.53765695
Ti      4.39345300     2.31416498     2.16809597     0.78450326     0.27640449     0.63926493
Ti      1.49848101     7.17615300     2.58740200     0.57985751     0.90214490     0.91492380
Ti      1.63742602     2.38491402     1.98242202    -1.14872227     1.11127388     0.66639291
Ti      2.96782001     4.65147099     4.42526402     0.56063182     0.00850624     0.70585473
Ti      2.99016500     0.06899000     0.12641198     1.15902288    -0.36152501    -1.00508882
Ti      5.78284698     4.49600401     4.24852400     1.20655283    -0.62669917     1.33854611
Ti      0.01325901     9.17779199     0.34159799    -1.65171842    -0.75336307     0.00893382
O       4.31224599     5.46187499     0.89245098     0.35879372     0.06317666     0.82882421
O       4.39786602     0.70126701     1.25602199     1.42368051     0.08259235    -0.95278588
O       1.50821999     0.61380502     1.26872701    -0.24565666     2.25149556     0.07099410
O       4.46472101     8.24928001     4.05778201    -0.01909456     1.78961213    -0.05635989
O       4.31884499     4.09511398     3.23186300    -0.11324402    -1.43487253    -0.39150125
O       1.45996400     8.40813199     4.07067800     0.13893501    -0.11901075    -1.33088422
O       1.52032698     4.02100398     3.26657301    -0.47840200    -0.49404228     0.35933725
O       2.95068801     6.33797100     3.57121998    -0.86212489    -0.91276510    -0.59246903
O       3.07552801     1.50273999     3.22305898    -0.52181484    -0.14927085     1.32560497
O       5.93319502     6.30613602     3.56085599     0.47204057    -1.58215617    -0.60014841
O       2.96053398     8.02214899     1.73376401     0.09882784    -1.56418904    -0.33981666
O       3.12899100     2.81964499     0.94747700    -0.84864716     2.29778161    -1.00316975
O       5.92578098     7.98827101     1.75163999    -0.32044390    -1.14490443    -0.21455658
O       0.07543099     3.01500098     0.98667898    -0.08035755     0.19367459     0.16576062
