# total energy = -19960.46060079 eV

CRYSTAL
PRIMVEC
        7.60600008     0.00000000     0.00000000
        0.00000000     7.60600008     0.00000000
       -1.89786986    -1.89786986     4.85670466
PRIMCOORD
24 1
Ti      3.83025500     6.65172501     1.17410700     0.63006500    -1.16383676    -2.17637921
Ti      3.76321999     2.70587098     1.23459503     0.73768731     1.33165787    -0.60767634
Ti      0.03698298     6.74784900     1.25724101    -0.93562324    -1.02701751    -0.79629434
Ti     -0.09621501     2.76426198     1.27899199    -0.14635213     1.46665600     0.85135402
Ti      5.61538725     2.87236522     3.68603081     2.67322066     0.60699474     1.83927172
Ti      5.64604524    -0.83537577     3.59011680     1.83147382    -1.22801332     0.29657197
Ti      1.99330121     2.80210620     3.65149580    -1.62909579     0.53744381     0.51122369
Ti      2.00488025    -0.89723977     3.51155980    -1.77596754    -0.22687243     1.08968457
O       3.84314999     4.63832999     0.75481398    -0.50902951     0.08720182     1.08332701
O       4.01288301     0.82261302     0.60630102    -0.51164072     1.78043818     0.99748324
O      -0.22128600     4.66974697     0.76407501     0.72328013     0.76666339     0.96165799
O      -0.16121999     0.93841801     0.79887799     0.06406780     0.00065640    -0.11739276
O       5.78449521     4.76846520     4.15300883    -0.14175474     0.19607728    -0.61095116
O       5.65693121     0.88513621     4.15368782    -0.13281681     0.38895689    -1.09241560
O       1.81601922     4.62128122     4.03012980     0.31936533     1.23434415    -0.44125957
O       2.12893024     0.91440321     4.05943680    -0.52953766    -1.01423861     0.30722946
O       3.85695220     2.82282921     3.25034484    -2.36836510    -0.12836417    -0.60574107
O       3.83041825    -0.89281775     3.04005080    -0.20503347    -0.63072295     1.72012650
O      -0.08316476     2.72364223     3.17586182     0.48502491    -0.20883896     1.24308205
O       0.00899522    -0.74478576     3.23383080     0.44728984    -0.67879488    -0.09463540
O       5.71226701     6.72076698     1.60141397    -0.01221249    -0.40579428     0.27969962
O       5.63849499     2.85417502     1.79126499    -0.86543776    -0.43078387    -2.20588752
O       1.93457598     6.94541002     1.61475601    -0.12291960    -0.78799739    -0.59307324
O       1.81207399     2.82992298     1.76851302     1.97431228    -0.46581490    -1.83900562
