# total energy = -39024.99593471 eV

CRYSTAL
PRIMVEC
        7.60600008     0.00000000     0.00000000
        0.00000000     7.60600008     0.00000000
       -3.79573973    -3.79573973     9.71340985
PRIMCOORD
46 1
Ti      2.02546646     4.36980846     6.10286062     0.32557043    -1.31696529    -1.65165466
Ti      3.86397200     7.07946898     1.32034100    -0.41586683     1.90579262    -1.19512067
Ti      1.84640447     0.16845744     6.13975862     0.49797119     2.96348803    -0.77538227
Ti      3.65410099     3.38948300     1.47805000     3.49542196     0.80378294    -3.72591039
Ti     -1.68990754     4.68063543     6.01851263    -1.13103487    -2.63305255    -0.62044368
Ti     -0.01170402     6.90654799     1.00095300     0.46638183     3.53113845     1.40589156
Ti     -2.05333357     0.73244243     6.11908562     0.21726884     1.57650797     1.20197446
Ti     -0.05174703     3.41789802     1.39828997    -2.57274551    -3.25520190    -0.96183899
Ti      3.78712245     1.09569044     8.47299361     1.49997057     2.97538118    -1.67801670
Ti      5.46118002     2.61185502     3.64173200     2.36071555     1.48084927    -0.45204356
Ti      3.73643245    -2.67669754     8.31426864     2.13707269     0.02343819     5.21840007
Ti      5.74728500    -0.98291600     3.62776998     0.69318792    -2.98931425    -2.93613945
Ti      0.14806247     1.49496346     8.32802963    -1.38267706    -0.73015166     1.05183304
Ti      1.86396998     2.14105602     3.22644799    -2.01115595    -1.97057004     4.40049072
Ti      0.05863744    -2.41720553     8.49373260    -1.40102651    -0.95565035     2.96296944
Ti      1.87204501     6.12425002     3.65515199    -0.95631061     1.58132313    -3.29885822
O       2.07005943    -1.47624657     5.53396465     0.31179111    -1.21696580     0.25608351
O       4.14777400     1.27920001     0.96391700    -0.00935959    -0.43977296    -2.50793954
O      -1.90672755     2.50620446     5.70645860    -0.01067702     0.66868659    -0.66912265
O       0.27316400     5.15540299     1.10943598     0.83979074    -2.56223766    -0.97310557
O       5.40804147    -1.29371757     5.38517662     0.82486599     2.75479896     3.04368359
O       7.34373000     1.41709799     0.50357301     0.01546031    -2.06061525     0.80159210
O      -3.38946353     3.00738146     8.99315262    -1.42598885     1.80124844    -1.08725488
O       5.48899400     4.42386000     4.12737199     0.26289977     0.07215804     0.98290251
O       3.68589142    -0.47472152     9.05614562    -0.12530224    -2.59449242     0.06940773
O       5.71202999     0.71866599     3.89641798     0.80983789     1.45537811     1.49075111
O       0.02951645     3.32757746     8.98629761    -0.65638257    -1.97454908    -0.43467575
O       2.00004600     3.66793803     4.24459502     0.19359411     0.82674007     0.75851814
O      -0.05415955    -0.28235453     9.28709164     0.46949801    -0.04677224    -0.24657557
O       1.40716999     0.43025100     4.16531199     1.90280859     1.27763126     1.29061662
O       1.96584644     1.41102447     8.41686463    -1.32989949     0.15799898    -1.12360669
O       3.74598601     2.28655399     2.91513301     0.98893277    -0.73130017     4.05283424
O       1.95413247    -3.10729055     7.95994960    -0.68174060     1.07988970     1.08768811
O       3.95995200    -0.83541498     3.15479897    -1.81147012    -1.25316874     0.81909438
O      -1.98906356     1.33698945     8.15619260     1.90552856    -1.59035336    -2.29665006
O      -0.30267801     2.57887098     3.04818098     2.85267447    -0.53028045     0.82348994
O      -1.85965856    -2.42238755     8.44196361     1.59313581     0.17190505    -2.52543951
O       0.10711701     6.07938002     3.36973299    -0.70093415    -0.21998778     0.65582233
O       3.84893146     4.62431144     6.51007363     2.08234545    -0.81134738    -1.29855285
O       5.72036802     6.51801901     1.39739101     0.40844894     0.78272405     0.94999597
O       3.64386046     0.87997843     6.31502662    -0.21068476    -0.57148420     0.81803894
O       5.65656602     3.51967701     1.81523302    -1.54628593     0.35634475    -1.11735788
O       0.21565444     4.36899543     6.23991065    -3.10796222     0.85839808     0.84471183
O       1.87744500    -0.41625098     1.80154997     0.03663283    -0.56896760    -0.27099335
O       0.19859943     0.80654746     6.50158864    -1.78361349     0.39614338     0.52207863
O       2.01588200     2.61893202     1.59785002    -3.92068746     1.52145395    -3.66218583
