# total energy = -4982.87233834 eV

CRYSTAL
PRIMVEC
        3.50083895     0.00000000     0.00000000
        0.00000000     5.48528979     0.00000000
        0.00000000    -0.00007118     5.48528979
PRIMCOORD
6 1
Ti      1.75041941     2.74260924     2.74264483     0.00000000     0.00000000     0.00000000
Ti      0.00000000     0.00000000     0.00000000     0.00000000     0.00000000     0.00000000
O       1.75041941     1.06898830     1.06900217    -0.00000000    -0.92335779    -0.92335779
O       1.75041941     4.41623018     4.41628749     0.00000000     0.92335779     0.92335779
O       0.00000000     1.67359208     3.81164812     0.00000000     0.92351386    -0.92351386
O       0.00000000     3.81162640     1.67364155     0.00000000    -0.92351386     0.92351386
