# total energy = -39035.55574282 eV

CRYSTAL
PRIMVEC
        7.60600008     0.00000000     0.00000000
        0.00000000     7.60600008     0.00000000
       -3.79573973    -3.79573973     9.71340985
PRIMCOORD
46 1
Ti      1.89338847     4.86836143     6.26492465     0.43779887     0.16892720     0.55163296
Ti      3.82777199     6.82411302     1.26748800    -0.81056011     0.00757267     0.82120088
Ti      1.80590045     1.03321847     6.05887964     0.75243131    -1.79261724    -0.91325798
Ti      3.76994102     3.07961601     1.09912703    -0.11713410    -1.47105928    -0.06097862
Ti     -1.90490655     4.65537346     6.02983564    -0.10745981     0.17681123    -0.56762034
Ti      0.01027302     6.63819898     1.28898302     0.98872374     0.76767255    -0.38212444
Ti     -1.94128156     0.83367145     6.05891663    -0.46624505     0.24799379    -1.56649429
Ti     -0.28751698     2.95346402     1.06414597     1.29296301    -0.92322487     0.82062650
Ti      3.79747443     1.00613243     8.44615364    -0.31778821    -0.29157632    -0.20167998
Ti      5.73974401     2.69139100     3.62596602    -0.84064743    -0.13348453     0.16887526
Ti      3.96215746    -2.87393153     8.52629060    -1.79301088     0.41712462     1.45830017
Ti      5.79951400    -1.09222698     3.66691899    -1.12248775     0.55250456    -0.97798347
Ti     -0.08382856     1.08529243     8.30306263     0.61996622    -0.25786195     1.50147158
Ti      1.94746499     2.83771702     3.37383099     0.40281205    -2.67670759     0.82401239
Ti     -0.04287055    -2.84456357     8.54632065     1.07264690     0.36118408     1.51646420
Ti      1.89667202    -1.06186998     3.79663600     1.40234986     0.96820453     0.32789445
O       1.80866445    -0.95959357     5.82330464     0.43460864    -0.27571723    -0.45915343
O       3.78973600     1.01946902     0.76872198     0.70179161     0.37195726    -0.13875349
O      -1.65961755     2.85297945     5.51985361    -0.42830738    -0.82067998     0.99605036
O       0.22352399     4.79161999     0.80281602    -0.56134530    -0.29141203    -0.46495538
O      -1.85197258    -1.00520357     5.53188662    -0.55622752    -1.47240036     2.08127484
O      -0.01873801     1.02087600     0.84638700    -0.06522891    -0.75840835    -0.22313918
O       3.79480547     2.85937847     8.95277661     0.74405079    -0.32117487     0.20920920
O       5.46533899     4.67679800     3.98925699     0.63599757    -0.21122366     0.97040668
O       3.87807145    -0.88487856     8.88669163    -1.05250641     0.26311754    -0.00105364
O      -1.58417999     0.74546998     4.08175199    -1.21723114     2.01672213    -0.39185735
O      -0.24916755     2.89024342     8.96520265     0.19862036    -0.80442777    -0.44213503
O       2.08077802     4.45076200     4.31333001    -0.41443550     0.80801318    -0.11447867
O      -0.08646153    -0.69014757     8.95102260     0.96720540    -0.64732791     0.24944621
O       1.87035101     0.93294002     4.08101098    -0.45092384     1.25511764     0.15028052
O       1.88615044     1.01923444     8.02400164     0.19451200     0.50838287     0.35308741
O       3.87817703     2.49740800     3.18233498    -0.84759481     0.79258681     0.16968490
O       1.99066745    -2.75604958     8.29305461    -1.22657864    -0.14759526    -1.44756016
O       3.70824302    -0.85090702     3.27340601     2.57931339    -0.33139578     0.20154628
O      -1.87823755     0.59071247     7.94159763    -2.13730229     1.68030910    -0.14940583
O      -0.11067700     2.64899998     3.07151902     1.59118332     1.03658279    -0.60247629
O      -1.87861258    -2.59236955     8.25868561     0.77518866    -0.47808704    -1.21370847
O       0.08206603    -1.06676000     3.38138701    -1.22443511    -0.77524394    -1.03060497
O       3.89201543     4.43579247     6.61336262    -0.38762866     0.39891786    -0.66361586
O       5.76821999     6.54195698     1.55762599    -0.67859074    -0.03409156     0.76003535
O       3.64095343     1.11313144     6.23860464     2.52509755     0.13426666     1.26189893
O       5.56448802     3.22511203     1.62732001     1.23571095     0.14028510    -0.84916935
O       0.01674947     4.71911646     6.57693565    -0.00174269    -0.35128533    -0.39337584
O       1.97135401     6.52135098     1.87260800    -1.07825602    -0.00359672    -2.12694511
O      -0.03864058     0.86935747     6.41803764    -0.16970033     0.75475738    -0.40665097
O       2.01267402     2.72586202     1.51799500    -1.47960434     1.44158800     0.39577931
