# total energy = -4990.29277966 eV

CRYSTAL
PRIMVEC
        3.85196701     0.00000000     0.00000000
        0.57455467     3.80887605     0.00000000
       -2.21329555    -1.90446789     4.92993051
PRIMCOORD
6 1
Ti      0.43077593     2.85680262     1.23248236     0.00019386    -0.00019386     0.00000000
Ti      1.78245060    -0.95239412     3.69744761    -0.00019386     0.00019386     0.00000000
O       0.14367918     0.95221331     0.80304527    -0.00029928    -0.00031470    -0.37572521
O       2.06954718     0.95219504     4.12688471     0.00029928     0.00031470     0.37572521
O      -0.14365562    -0.95219303     3.26801052    -0.00031470    -0.00029928    -0.37572521
O       2.35688192     2.85660139     1.66191945     0.00031470     0.00029928     0.37572521
