# total energy = -19072.39088178 eV

CRYSTAL
PRIMVEC
        5.17600016     0.00000000     0.00000000
        0.00000000     5.50899976     0.00000000
        0.00000000     0.00000000     9.26300011
PRIMCOORD
22 1
Ti      1.45232299     3.14720099     3.67505700     2.24323923    -0.33026938    -0.12108666
Ti      4.55159900     2.97828201     5.88209999    -2.22521656     0.74143289    -0.56718403
Ti      4.46332498     2.20143499     1.38456597    -3.95048373    -1.78265678     1.09179905
Ti      1.21898599     2.85764700     8.20091401     1.71822851    -0.36296200    -0.65237576
Ti      1.74662000     0.57920397     1.49770301    -1.34885315    -0.82806342     0.22695470
Ti      3.17428900     5.28131897     8.02521599    -1.24365797     0.45146351    -0.57774586
Ti      1.33414401     0.20690100     5.72592402     2.40465958     2.03979959     0.19394558
Ti      3.97010400     4.88843498     3.45172700    -0.66439644     1.11353876     1.27454876
O       3.19220397     3.40536001     4.52577298     0.12149932    -1.65881133     0.93160692
O       0.50036402     1.63711000     0.26041400     1.98480444    -0.00112769    -2.64596952
O       4.78097903     3.59710897     7.67495400    -1.23018616     1.04024404     0.13910676
O       3.02934100     1.08584801     0.34821498     2.03490729     0.01211761    -2.78319655
O       2.09076201     4.29671300     9.13441099    -0.29206354    -0.62045807     1.04705593
O       2.77839102     0.34392103     4.66300499     0.70291878     0.76994412    -0.07857757
O       0.32162203     4.47993702     4.80750700    -1.04650982    -0.41355464    -0.12745992
O       5.01439001     3.37108800     2.63826800     0.29291612     0.62514982    -0.67060335
O       0.59257798     1.99787098     4.94911398     0.61670092    -1.52630922    -0.65165714
O       2.42443700     2.00819300     2.33348598    -0.36293320     0.76116792     1.69683487
O       2.11686998     4.30680203     6.73910599     0.44868852    -0.94927966     0.48291686
O       4.90097600     0.52726798     2.17436900     0.73459993    -0.36733133     1.24444267
O       2.14302001     1.24656703     7.14420303     0.43535580     1.10410487     1.47318841
O       2.45516998     4.59548002     2.49205098    -1.37421787     0.18186036    -0.92654390
