# total energy = -19940.89131644 eV

CRYSTAL
PRIMVEC
        5.19904931     0.00000000     0.00000000
        2.37005288     5.00009276     0.00000000
        0.00000000     0.00000000     9.56228035
PRIMCOORD
24 1
Ti      3.28889641     2.96305031     3.54753779     3.26073389    -4.13977664     1.19952806
Ti      4.28020561     2.03704238     6.01474262    -3.26073389     4.13977664    -1.19952806
Ti      5.44940663     2.03704407     1.23356422    -6.93080683     1.04502372     1.70010377
Ti      2.11969549     2.96304881     8.32871634     6.93080683    -1.04502372    -1.70010377
Ti      2.10387009     0.46300401     1.23360255     3.26008083    -4.14035669    -1.20139673
Ti      5.46523197     4.53708884     8.32867802    -3.26008083     4.14035669     1.20139673
Ti      0.93466904     0.46300217     6.01470429     6.93056824    -1.04546441     1.69487235
Ti      6.63443307     4.53709067     3.54757616    -6.93056824     1.04546441    -1.69487235
O       2.48006779     1.76061764     4.87955848    -0.00076439     1.08762435    -1.27495448
O       5.08903423     3.23947506     4.68272198     0.00076439    -1.08762435     1.27495448
O       1.78856857     1.76063784     0.09844905     1.48553871    -0.60424803    -0.46632012
O       5.78053352     3.23945495     9.46383115    -1.48553871     0.60424803     0.46632012
O       3.90400789     0.73942865     0.09841799     0.00087829    -1.08731582    -1.27503701
O       3.66509414     4.26066410     9.46386216    -0.00087829     1.08731582     1.27503701
O       4.59550717     0.73940849     4.87958949    -1.48570249     0.60510113    -0.46547397
O       2.97359481     4.26068427     4.68269092     1.48570249    -0.60510113     0.46547397
O       1.63049396     3.04133989     2.58301049     0.38182182    -0.90833792    -0.73561320
O       5.93860801     1.95875282     6.97926997    -0.38182182     0.90833792     0.73561320
O       3.71685865     1.95870629     2.19816013     2.07070992    -1.00791344    -2.06034271
O       3.85224337     3.04138641     7.36412012    -2.07070992     1.00791344     2.06034271
O       0.44546761     0.54129343     2.19812958     0.38178685    -0.90888119     0.73595310
O       7.12363436     4.45879927     7.36415067    -0.38178685     0.90888119    -0.73595310
O       2.66721702     0.54133995     6.97930041    -2.07078731     1.00788798    -2.06045276
O       4.90188500     4.45875274     2.58297994     2.07078731    -1.00788798     2.06045276
