# total energy = -4983.06076284 eV

CRYSTAL
PRIMVEC
        4.25737608     0.00000000     0.00000000
        0.00000000     2.85885856     0.00000000
        0.00000000    -0.00009162     5.67233883
PRIMCOORD
6 1
Ti      2.12868804     1.42938341     2.83616930     0.00000000     0.00000000     0.00000000
Ti      0.00000000     0.00000000     0.00000000     0.00000000     0.00000000     0.00000000
O       2.12868804     0.55713156     1.10545527     0.00000000    -0.44590196     1.86497248
O       2.12868804     2.30163532     4.56688333     0.00000000     0.44590196    -1.86497248
O       0.00000000     0.87221552     3.94162566     0.00000000     0.44465497     1.86482104
O       0.00000000     1.98655131     1.73071289     0.00000000    -0.44465497    -1.86482104
