# total energy = -19936.40163555 eV

CRYSTAL
PRIMVEC
        4.96156234     0.00000000     0.00000000
        2.03102430     4.87439269     0.00000000
        0.00000000     0.00000000     9.07047036
PRIMCOORD
24 1
Ti      3.00191087     2.88856068     3.36507981     3.93218133    -3.72186861     1.26293483
Ti      3.99067585     1.98583214     5.70539065    -3.93218133     3.72186861    -1.26293483
Ti      5.10646896     1.98583380     1.17011916    -8.05355324     1.57871295     2.25622562
Ti      1.88611781     2.88855922     7.90035135     8.05355324    -1.57871295    -2.25622562
Ti      1.98639882     0.45136432     1.17015552     3.93255234    -3.72136956    -1.26282941
Ti      5.00618793     4.42302865     7.90031499    -3.93255234     3.72136956     1.26282941
Ti      0.87060564     0.45136253     5.70535424     8.05420013    -1.57871475     2.25676915
Ti      6.12198112     4.42303044     3.36511617    -8.05420013     1.57871475    -2.25676915
O       2.28552398     1.71635658     4.62859161    -1.11081828     0.21132650    -1.22217357
O       4.70706269     3.15803625     4.44187885     1.11081828    -0.21132650     1.22217357
O       1.62561078     1.71637627     0.09338558     1.73801342    -0.48220518    -1.19944989
O       5.36697601     3.15801664     8.97708458    -1.73801342     0.48220518     1.19944989
O       3.69155062     0.72083979     0.09335613     1.11080157    -0.21103931    -1.22223039
O       3.30103610     4.15355303     8.97711403    -1.11080157     0.21103931     1.22223039
O       4.35146388     0.72082014     4.62862101    -1.73704334     0.48164391    -1.19897707
O       2.64112275     4.15357275     4.44184940     1.73704334    -0.48164391     1.19897707
O       1.41564917     2.96488209     2.45016035     0.00681934    -2.50425772    -2.36335427
O       5.57693750     1.90951074     6.62031011    -0.00681934     2.50425772     2.36335427
O       3.45667733     1.90946538     2.08510373     2.26885103    -2.46761460    -3.41006747
O       3.53590934     2.96492745     6.98536658    -2.26885103     2.46761460     3.41006747
O       0.40013709     0.52768558     2.08507473     0.00628404    -2.50403918     2.36439146
O       6.59244964     4.34670724     6.98539553    -0.00628404     2.50403918    -2.36439146
O       2.52039727     0.52773099     6.62033901    -2.26847153     2.46766525    -3.40990035
O       4.47218941     4.34666184     2.45013140     2.26847153    -2.46766525     3.40990035
