# total energy = -19075.26397677 eV

CRYSTAL
PRIMVEC
        7.60600008     0.00000000     0.00000000
        0.00000000     7.60600008     0.00000000
       -1.89786986    -1.89786986     4.85670466
PRIMCOORD
22 1
Ti      3.63538003     6.60848599     1.33798599     1.14832195     1.16288674    -1.52761791
Ti      3.79555499     2.87008299     1.29916597     2.37131133    -0.56361482     0.02668806
Ti      0.10518102     6.74890101     1.13326600    -1.30463171    -0.12605069    -1.29496898
Ti      0.22883498     2.87920500     0.98197099    -2.25819560    -0.42831869     0.42341328
Ti      5.82341122     2.87531020     3.45678382     0.04692754     0.39011440    -0.69752281
Ti      6.04525423    -0.92214279     3.56864479    -1.00430489    -0.59689056    -0.41413931
Ti      1.93040924     2.73050423     3.69527284    -0.95826824     1.02730625     0.25249271
Ti      1.22287121    -0.88966475     4.00443184     0.72025137    -2.05475905     0.19097570
O       3.69214101     4.73850700     0.87151900    -0.21872306    -0.36116839    -0.09826709
O       4.01136702     0.86458202     0.96268301    -1.10480858    -0.27820786     0.49583280
O       0.21337099     4.74001901     0.51410898     0.66818034     0.19446417     0.90946149
O      -0.16801103     1.00226901     0.71657098     1.05565704    -0.73238981    -0.28440988
O       5.76615524     4.81301822     3.88327681     0.21997775    -0.09555611     0.12305227
O       5.54619621     0.88688223     3.84405282     0.78378103     0.77012436    -0.07065780
O       1.76564921     4.72289420     4.22553379    -0.73038023     0.19786574     0.11520680
O       1.81430622     0.84348922     4.10911680     0.07414576     1.73539680     0.40186949
O       3.70236820     2.94921520     3.27295981     0.97131068    -0.09352211    -0.42273194
O       0.05858521     2.83918020     2.94786881     0.71395987     0.05455677     1.10769002
O       5.91963898     6.57022198     1.56938298    -0.78828535    -0.18163668     1.39507338
O       5.77196101     2.93632598     1.46062801    -1.10447254     0.19652209     0.79032141
O       1.70214900    -0.85346802     2.21693099     1.55556067    -0.60629515    -1.71789967
O       1.99942798     2.50006902     1.49364602    -0.85731487     0.38917260     0.29613772
