# total energy = -4986.99653985 eV

CRYSTAL
PRIMVEC
        2.91000351     0.00000000     0.00000000
        1.33776177     4.35887508     0.00000000
       -0.00000891    -0.00005976     4.61288380
PRIMCOORD
6 1
Ti      2.12387824     2.17940770     2.30644190     0.00000000     0.00000000     0.00000000
Ti      0.00000000     0.00000000     0.00000000     0.00000000     0.00000000     0.00000000
O       1.71571009     0.84946900     0.89898310    -3.25136221     1.52766650     1.67465524
O       2.53204644     3.50934640     3.71390066     3.25136221    -1.52766650    -1.67465524
O       0.40816449     1.32991452     3.20542602     3.25164581    -1.52878673     1.67558315
O       0.92958855     3.02890067     1.40745778    -3.25164581     1.52878673    -1.67558315
