# total energy = -19961.03275074 eV

CRYSTAL
PRIMVEC
        5.93400000     0.00000000     0.00000000
        0.00000000     9.29699974     0.00000000
        0.00000000     0.00000000     4.64899994
PRIMCOORD
24 1
Ti      4.45748101     7.01241201     2.33138901     1.15605840     0.03528609    -0.41768666
Ti      4.46950101     2.40881299     2.38047401    -0.93428756    -0.72692595    -0.91816519
Ti      1.51372502     6.87825600     2.23454000    -1.14545465     0.50376003     0.23781993
Ti      1.49379700     2.33243800     2.41475502     0.86748513    -0.92033803    -1.23309459
Ti      2.96195901     4.64869498     4.63182899    -0.24027379     0.57284688     0.52117283
Ti      2.97441700     9.25115902     0.01730399    -0.87565918     0.68478478     0.60248400
Ti      5.90388199     4.61009901     4.62662898     0.37642815     1.02419495     0.41516235
Ti      5.91982498     0.06313402     4.56053601     0.77593197    -0.37993925     1.49544183
O       4.49784703     5.61053099     0.84687998    -0.40511782    -0.47566532     0.01439561
O       4.46451600     0.77299900     0.91445501    -0.20550784     1.44282393     1.14253928
O       1.48960602     5.57744402     0.81027499     0.00507690    -0.23094968     0.34861986
O       1.44959302     0.87547402     1.02492198     0.06385646     0.28947573    -0.35384280
O       4.41024401     8.42729699     3.77937201     0.32512229    -1.20323919    -1.33317636
O       4.45109199     3.77640799     3.79929400    -0.05122359    -0.75211994    -0.89963936
O       1.46870801     8.41076099     3.83822801     0.16625916    -0.37192384    -1.09273442
O       1.50285402     3.75211298     3.69881801    -0.25968254     0.12770623     0.64820980
O       2.94244200     5.99004501     3.18832600     0.48103995     0.25005710    -0.01435576
O       3.03651902     1.48334601     3.27403901    -0.56755426    -0.18788343     0.09664600
O       0.03324000     6.04300702     3.16222000    -0.57676653    -0.36567965     0.53608806
O       5.89019201     1.49689300     3.29977100     0.05648356     0.00103384    -0.13125846
O       2.93168398     7.83904202     1.40737097     0.59793212     0.02122086     0.30334478
O       2.90243000     3.25925602     1.45852299     0.66725525     0.07568868    -0.30936193
O       0.01368198     7.79882201     1.38773998    -0.47356113     0.23242910     0.49878366
O       5.90070401     3.21380002     1.41756399     0.19616007     0.35335584    -0.15739220
