# total energy = -19960.86584066 eV

CRYSTAL
PRIMVEC
        7.60600008     0.00000000     0.00000000
        0.00000000     7.60600008     0.00000000
       -1.89786986    -1.89786986     4.85670466
PRIMCOORD
24 1
Ti      3.81788802     6.54935599     1.19861198    -0.71358295     0.83029154     1.10627385
Ti      3.78408402     2.84885801     1.22520398     0.51318364    -0.02373181    -0.01794374
Ti     -0.01192300     6.69296200     1.23685900     0.99622700     0.55052507    -0.96605458
Ti     -0.03837699     2.92362202     1.20100301    -0.01278559    -1.23157224     0.41777357
Ti      5.70026622     2.87157823     3.67857883     0.72920678     0.20620435    -0.20137196
Ti      5.75288422    -0.94137876     3.62053179    -0.67314462    -0.31793888     0.61107586
Ti      1.92574322     2.85543721     3.64366080    -0.49559240    -0.51847240    -0.73498379
Ti      1.89526123    -1.00091977     3.72794784     0.38159350     0.43807140    -2.69533421
O       3.65579500     4.77848602     0.70042499     0.56499704    -0.52041770     1.39356800
O       3.72095201     0.89263402     0.65201098     0.18756976     0.04527714     2.92583986
O       0.03350502     4.78984502     0.79586099    -0.05426521    -0.76243316    -0.45741793
O      -0.03520299     0.99175098     0.85910498     0.41212408    -0.35838363    -1.19217958
O       5.74549225     4.70162122     3.87802282     0.20568319     1.11375011     1.19510936
O       5.73616920     0.88163121     3.94130581    -0.37673412     0.76976517     1.14945092
O       1.85089925     4.69609624     4.03947581    -0.00318483     0.32447103    -0.15301412
O       1.81439221     0.93063122     4.19259383     0.61609800     0.38130914    -1.45395115
O       3.85549321     3.00258124     3.22882383    -0.82826422    -1.00807696     0.11592491
O       3.84280322    -1.01389678     3.26061781    -1.05693256     0.04848820    -0.92235969
O      -0.09567879     2.65657023     3.23817784     2.31995121     0.74076698    -0.84842451
O      -0.01017375    -0.98331780     3.13369480     0.48714478    -0.05531319     1.08383428
O       5.74708301     6.65160002     1.55711200    -2.06150691    -0.11805456     0.16257940
O       5.78121298     2.91806899     1.56058102    -1.65551054     0.04370106    -0.18024185
O       1.82209999     6.68941503     1.59871999     2.11343781    -0.05870293     0.20741663
O       2.01001602     2.96986798     1.71626602    -1.59571257    -0.51952347    -0.54556927
