# total energy = -39036.83826667 eV

CRYSTAL
PRIMVEC
        7.60600008     0.00000000     0.00000000
        0.00000000     7.60600008     0.00000000
       -3.79573973    -3.79573973     9.71340985
PRIMCOORD
46 1
Ti      1.91892144     4.95660745     6.19278064    -0.15460743    -0.67180174     1.64976335
Ti      3.94973798     6.69776899     1.29561599    -0.51346620     0.65799234     0.45374665
Ti      1.88212547     1.03810543     6.06806060    -0.73596775    -1.44417401    -0.33582348
Ti      3.82637602     2.84360597     1.21927900     1.53417140    -0.96718483    -0.18808372
Ti     -1.93749857     4.82349445     6.02082365    -0.44125674    -1.37647118     0.42275868
Ti      0.11255399     6.56693298     1.27006599    -0.02619878    -0.35060141    -1.05621548
Ti     -1.98135356     1.03861645     5.90066263     0.23174056     1.22566307     0.15288685
Ti      0.20777102     2.84035201     1.18911600    -2.19515984     0.69127091    -1.00598691
Ti      3.78434046     0.83400547     8.33083163    -0.28108879    -0.12835132     1.62997922
Ti      5.71145398     2.96736000     3.44072900    -0.24331155    -0.42988115     0.75048524
Ti      3.78784144    -2.94286857     8.61076062    -1.63615399     0.23653541    -0.62026370
Ti      5.78626202    -0.84976399     3.71098898    -1.22393118    -0.39856048    -0.48534630
Ti     -0.09992158     0.88160342     8.31900462     0.06241741     0.51404136     0.24589474
Ti      1.90670898     2.76909798     3.52889199     0.88763513    -0.77926643     2.93388408
Ti     -0.20920356    -2.94644956     8.55557860     1.62925366    -0.05472852     0.81671868
Ti      1.88722001    -1.02339599     3.69867100     1.15567993     0.46881718     0.58517584
O       1.87762846    -0.90565855     5.82692363    -0.26700402    -0.05851962    -0.83049388
O       3.76617698     0.95351703     0.89345001    -0.17204235    -0.19050107    -0.77578104
O      -1.96348456     2.94479244     5.57096663     0.15681241    -0.99045513     0.28804362
O      -0.00643898     4.77079501     0.72018198     0.47420519    -0.98285494     0.02861716
O      -1.89541252    -0.94987856     5.62556761    -0.28295772     0.55965018    -0.22467413
O       0.03407600     0.96008703     0.91914601     0.79907833    -0.38873243    -0.50536723
O       3.81091944     2.76606547     8.97905561     0.32774918     0.73962824    -0.41157283
O       5.61329398     4.72669899     4.06273997     0.12880126     1.04958743    -0.87972641
O       3.59517547    -1.00817654     8.84336461     1.02089468     0.67974799     0.55627714
O       5.63303198     1.03493502     3.99591600     0.72436462    -0.72768391    -0.51085062
O      -0.12359056     2.71407047     9.03525460     0.03023284    -0.20880476    -0.50017360
O       2.13142902     4.50555798     4.41612999    -0.65640082    -0.11696415    -1.18582536
O      -0.03267955    -0.83208857     9.03931461    -0.16950107    -0.33747387    -0.65389194
O       1.86028600     0.83073298     4.06078699    -0.05940459     1.93387730    -0.57822872
O       1.89281045     0.81600243     8.00634564    -0.67706119     1.05560742    -0.38244865
O       3.84035800     2.59370900     3.12433101     0.25982036     0.79442875     0.73158402
O       1.81649246    -2.93057456     8.21598265     0.06285193    -0.20518002    -0.51620983
O       3.76268298    -0.92609501     3.26465300     0.80371326    -0.42913630    -0.08424300
O      -1.95280757     0.66914643     7.85631764    -1.13809718     0.50343915     1.07609218
O       0.05076302     2.91799300     3.10184198    -0.52946670    -0.27954535     0.80115347
O      -1.98136954    -2.65662754     8.12411361     0.03646726    -0.41225083     0.60634914
O      -0.00025501    -0.96459800     3.46285898     1.19784270    -0.57657884    -0.90006616
O       3.78392347     4.65766443     6.59091662    -0.51599257     0.09065610     0.07513203
O       5.84371802     6.67070501     1.74309198    -1.30767538    -0.30847156    -0.51189372
O       3.73434644     1.02428543     6.23479964    -0.29916005     0.54965089     1.07887745
O       5.78558002     2.96281802     1.46043999    -1.11607979     0.32662124     1.05171502
O      -0.14170557     4.69540942     6.61793260     1.32114488     0.00532476    -0.61791962
O       1.98659500     6.52355299     1.61423398    -0.84472854    -0.27122937     0.95151755
O      -0.17054753     1.00269945     6.38473260     2.63059329     0.63262891    -0.14744614
O       1.99420002     3.19064602     1.76742900     0.01124370     0.37023462    -2.97811915
