# total energy = -19957.67172413 eV

CRYSTAL
PRIMVEC
        7.60600008     0.00000000     0.00000000
        0.00000000     7.60600008     0.00000000
       -1.89786986    -1.89786986     4.85670466
PRIMCOORD
24 1
Ti      3.81547598     6.61211202     1.18336098     2.34350021    -0.98872117    -0.79412484
Ti      3.59662901     2.75627802     1.18013099     5.46523224    -0.00636194    -0.06539295
Ti      0.00071799     6.85897501     1.28142700    -2.22113416    -2.92292320    -1.40335645
Ti      0.03191399     2.88732797     1.22856801    -3.69302159     4.28121154     0.38049513
Ti      5.67003321     3.00592824     3.66537480    -0.43765540    -0.02366958    -0.33498427
Ti      5.73371525    -0.81246277     3.71700683    -1.59026235    -0.32657702    -1.27368950
Ti      1.91449820     2.60626622     3.60333580    -0.38749367     1.40363438     2.43419385
Ti      1.89190122    -1.07061077     3.55687579     1.74268640    -0.58316858     1.22095975
O       3.95958100     4.53477698     0.73859999    -1.74620470     0.50553692    -0.21994510
O       3.98679500     0.79977500     0.77899299    -1.21434996     0.95255088    -0.89814375
O      -0.10953101     4.82954501     0.88411998     1.29075263    -0.89092126    -0.96410619
O      -0.04656501     1.10983397     0.91920898     0.55411716    -1.88657027    -0.87600191
O       5.27852725     4.76574020     4.19993283     1.87411353     1.26446386    -0.62031718
O       5.57896123     1.03175525     4.00794579     1.15970988    -0.39666146     0.74204790
O       2.25937725     4.50132224     4.13926779    -1.42781408     2.68869202    -0.92469991
O       2.18033923     0.75674522     4.00559381    -2.08988650    -1.02954362     0.02777512
O       3.63886725     2.63150422     3.37413379     2.59183904     0.45989468    -2.76459024
O       4.01847022    -0.83140879     3.12357783    -2.06500464    -0.70904778    -0.01633525
O       0.05556922     3.11960123     3.31128780    -1.20764529    -0.94805968    -1.15546576
O      -0.01130778    -0.89647680     3.23146681     1.45428771    -0.22691716     0.88579448
O       5.79631300     6.53523601     1.49609998     0.09705944     0.85307435     1.88182453
O       5.56428301     2.96160901     1.57850801     1.48152650    -0.81473456     2.42381507
O       1.96702799     6.61695399     1.56867103    -0.82102476    -0.10813318     0.91603914
O       1.86959000     2.95453100     1.34339202    -1.15332686    -0.54704791     1.39820884
