# total energy = -4986.83039999 eV

CRYSTAL
PRIMVEC
        3.00241428     0.00000000     0.00000000
        0.00000000     3.84899981     0.00000000
        0.00000000    -0.00005652     4.31986518
PRIMCOORD
6 1
Ti      1.50120714     1.92447160     2.15993269     0.00000000     0.00000000     0.00000000
Ti      0.00000000     0.00000000     0.00000000     0.00000000     0.00000000     0.00000000
O       1.50120714     0.75010235     0.84187815     0.00000000    -0.21652270    -0.45743722
O       1.50120714     3.09884085     3.47798722     0.00000000     0.21652270     0.45743722
O       0.00000000     1.17434638     3.00181161     0.00000000     0.21490085    -0.45536979
O       0.00000000     2.67459681     1.31805376     0.00000000    -0.21490085     0.45536979
