# total energy = -4988.50165890 eV

CRYSTAL
PRIMVEC
        2.87725348     0.00000000     0.00000000
        0.89271771     4.41895311     0.00000000
       -0.00000595    -0.00005903     4.53116293
PRIMCOORD
6 1
Ti      1.88498257     2.20944705     2.26558157     0.00000000     0.00000000     0.00000000
Ti      0.00000000     0.00000000     0.00000000     0.00000000     0.00000000     0.00000000
O       1.61260306     0.86117742     0.88305697    -2.15335420     1.01166262     1.06157726
O       2.15736208     3.55771668     3.64810616     2.15335420    -1.01166262    -1.06157726
O       0.27237707     1.34824572     3.14863936     2.15237641    -1.01188322     1.06124611
O       0.62033469     3.07064826     1.38252378    -2.15237641     1.01188322    -1.06124611
