# total energy = -4953.71732106 eV

CRYSTAL
PRIMVEC
        4.69688784     0.00000000     0.00000000
       -0.00000665     2.52909376     0.00000000
       -2.34847000    -1.26460379     5.06701073
PRIMCOORD
6 1
Ti     -0.00020104     1.89690747     1.26675248    -0.02129414    -0.02317028    36.84523349
Ti      2.34861187    -0.63241734     3.80025785     0.02129414     0.02317028   -36.84523349
O       0.00004986     0.63226354     0.82537459     0.02060380     0.02203642   -26.65774045
O       2.34836088     0.63222649     4.24163585    -0.02060380    -0.02203642    26.65774045
O      -0.00001918    -0.63228068     3.35887995    -0.00161362     0.00016532    -0.71379070
O       2.34842982     1.89677070     1.70813048     0.00161362    -0.00016532     0.71379070
