# total energy = -19961.80395558 eV

CRYSTAL
PRIMVEC
        5.12559683     0.00000000     0.00000000
        0.27261698     5.44836887     0.00000000
        0.00000000     0.00000000     9.17655981
PRIMCOORD
24 1
Ti      2.01933482     3.22869821     3.40443824     0.31157874    -0.18105689     0.13558846
Ti      3.37887877     2.21967045     5.77212168    -0.31157874     0.18105689    -0.13558846
Ti      4.53156056     2.21967232     1.18380505    -0.36772214    -0.28795492     0.29398673
Ti      0.86665309     3.22869656     7.99275497     0.36772214     0.28795492    -0.29398673
Ti      1.88302644     0.50451399     1.18384183     0.31157874    -0.18105689    -0.13558846
Ti      3.51518716     4.94385484     7.99271820    -0.31157874     0.18105689     0.13558846
Ti      0.73034470     0.50451197     5.77208485     0.36772214     0.28795492     0.29398673
Ti      4.66786895     4.94385686     3.40447507    -0.36772214    -0.28795492    -0.29398673
O       1.71827675     1.91846322     4.68272823    -0.09691751     0.00107524    -0.15550218
O       3.67993684     3.52990545     4.49383168     0.09691751    -0.00107524     0.15550218
O       1.03653876     1.91848521     0.09447782     0.22192074    -0.28472176     0.11080353
O       4.36167489     3.52988351     9.08208183    -0.22192074     0.28472176    -0.11080353
O       3.54362846     0.80572106     0.09444806     0.09691751    -0.00107524    -0.15550218
O       1.85458513     4.64264761     9.08211159    -0.09691751     0.00107524     0.15550218
O       4.22536650     0.80569913     4.68275804    -0.22192074     0.28472176     0.11080353
O       1.17284704     4.64266965     4.49380188     0.22192074    -0.28472176    -0.11080353
O       0.35204588     3.31400668     2.47881778    -0.18042363     0.00496737    -0.14258444
O       5.04616777     2.13436199     6.69774219     0.18042363    -0.00496737     0.14258444
O       2.85582662     2.13431122     2.10949136     0.10491545    -0.09406950    -0.10024555
O       2.54238703     3.31405744     7.06706840    -0.10491545     0.09406950     0.10024555
O       0.21573750     0.58982229     2.10946207    -0.18042363     0.00496737     0.14258444
O       5.18247615     4.85854637     7.06709769     0.18042363    -0.00496737    -0.14258444
O       2.40607865     0.58987306     6.69777142    -0.10491545     0.09406950    -0.10024555
O       2.99213500     4.85849561     2.47878845     0.10491545    -0.09406950     0.10024555
