# total energy = -19075.23435512 eV

CRYSTAL
PRIMVEC
        7.60600008     0.00000000     0.00000000
        0.00000000     7.60600008     0.00000000
       -1.89786986    -1.89786986     4.85670466
PRIMCOORD
22 1
Ti      3.81970500     6.54092599     1.17404799    -1.46781249     0.98283874    -0.57048404
Ti      3.77244402     2.84935601     1.22950402     0.39168046    -0.02053618    -0.69957969
Ti     -0.00953202     6.70053299     1.23240899     1.03105209     0.67595458    -0.57328397
Ti     -0.04854699     2.94003202     1.20017998     0.02778207    -1.30314767     0.99689188
Ti      5.70400724     2.88212124     3.68506480     0.62254658     0.10063430    -1.01286410
Ti      5.76616922    -0.93075780     3.63153381    -0.27571569    -1.08334809     0.37241183
Ti      1.93541425     2.86087424     3.64190483    -0.49130509    -0.56665875    -0.59132746
Ti      1.89229424    -0.99738079     3.75904282    -0.06222715     0.50794707    -3.91577306
O       3.64050098     4.79592601     0.68907498     0.70811447    -1.44573699     0.90018340
O       3.72230998     0.90512498     0.61561603     0.35533944    -0.20368518     4.50264428
O       0.03883500     4.79961400     0.81478802    -0.20338951    -0.74995636    -0.37612862
O      -0.04317102     0.99000401     0.89116799     0.10165940    -1.15347444    -0.73614876
O       5.73660022     4.68160123     3.85867081     0.24287472     1.66785390     1.14709784
O       5.74398325     0.85840223     3.89298483    -0.21446942     1.26850795     1.11016676
O       1.85818623     4.69672025     4.03098780     0.29274463     0.94833993    -0.84188285
O       1.81085122     0.92882524     4.19797784     0.72139834     0.35079142    -2.22720377
O       3.86576422     3.02626224     3.23832384    -0.68618167    -1.01811044     0.20441563
O       0.06228220     2.79569823     3.28235482    -0.64572457     0.26253724    -1.65917797
O       5.55769201     6.43475202     1.71148602     2.37159261     0.78888930     0.71160526
O       5.68275400     2.82984102     1.52982100     1.28312056     0.25888859     0.45641006
O       1.98273000     6.65795999     1.56203498    -1.99449982     0.17843565     1.84118000
O       2.00117500     2.92295801     1.54510899    -2.10857971    -0.44696460     0.96084758
