# total energy = -19960.81562720 eV

CRYSTAL
PRIMVEC
        7.60600008     0.00000000     0.00000000
        0.00000000     7.60600008     0.00000000
       -1.89786986    -1.89786986     4.85670466
PRIMCOORD
24 1
Ti      3.79030000     6.53480399     1.29913899    -0.04473618     1.78374590     0.86157108
Ti      3.77728197     2.96340398     1.16648600     0.22857887    -2.62495640     0.30946066
Ti      0.00373398     6.54811697     1.19755500     0.12485256     0.76152710     1.57520750
Ti      0.00285100     2.88187999     1.09033803     0.30823785    -0.32386424     0.37099027
Ti      5.72565821     2.82760323     3.55250282    -1.53930204     0.25219035    -0.27559305
Ti      5.79532625    -1.10068879     3.71582380    -1.34743673     0.74127426    -0.43604923
Ti      1.79289724     3.00289023     3.60297781     2.14837012    -0.97833597    -0.73524630
Ti      1.82965923    -0.90742278     3.70944283     1.51967654     1.01215139     0.99185895
O       3.66354400     4.71532898     0.67404899    -0.01105163     2.65389264     0.82579673
O       3.71541602     1.01173801     0.80822802     0.51544673     0.24847870     0.30300976
O       0.09509601     4.74932200     0.74928398     0.27207090    -1.24185871    -0.27117332
O       0.01367801     0.77969701     0.80789099    -0.02559354     2.43318186     0.50980212
O       5.70729020     4.72076321     4.15198482     0.02497082    -1.42434643    -1.26634282
O       5.61403023     0.97078122     4.05554581     0.59224329    -0.38625774    -0.47422473
O       1.99535622     4.87187025     4.20992682    -0.15968151    -1.86008070    -0.45764908
O       1.93511320     1.10815622     3.94361281    -0.31788386    -1.17088698     0.35722535
O       3.77315423     2.98223322     3.19487383     1.14734878     0.08919623    -0.14014420
O       3.82432821    -0.99852879     3.28860679     0.63044656     0.01474477    -0.46944890
O       0.03098423     3.00308825     3.08230783    -1.00834950    -0.15540165     0.55052996
O       0.02911120    -1.14533875     3.28389483    -0.36009007     0.52456772     0.25138791
O       5.79514400     6.41380200     1.77408001    -1.12279628     0.28761168    -1.06209149
O       5.71239100     2.99796502     1.59749198     0.53023366    -0.45151776     0.02833588
O       1.92465798     6.64481099     1.79041598     0.00531807    -0.32273013    -1.60830250
O       1.96904098     2.87427598     1.53338898    -2.11087391     0.13767388     0.26108971
