# total energy = -19957.11315852 eV

CRYSTAL
PRIMVEC
        7.60600008     0.00000000     0.00000000
        0.00000000     7.60600008     0.00000000
       -1.89786986    -1.89786986     4.85670466
PRIMCOORD
24 1
Ti      3.68232498     6.76198502     1.23820798     1.04811008    -2.62311189    -0.69335942
Ti      3.79318200     2.88508701     1.09859197     0.86421468     2.55762176     0.35599508
Ti     -0.04169102     6.43953298     1.24557799    -1.25338317    -1.29855953    -0.99531477
Ti      0.07977400     2.65399700     1.15533502    -0.26951805     2.28367010    -0.06085264
Ti      5.77307625     2.76319220     3.55557380    -0.27976184     3.02358064     1.44727733
Ti      5.67428521    -1.00680279     3.71028380    -0.77388074    -3.18476959    -1.74422366
Ti      1.95961421     3.00734723     3.55787382     0.21062408     0.57089927     1.58174145
Ti      1.77827221    -0.89035676     3.67607683     0.82362569    -1.03811671    -1.23635424
O       3.86113101     4.85679499     0.58349100     0.16218165    -1.01447155     2.47804197
O       3.55866398     0.99533298     0.69100902     0.19355837     0.87384681     2.28359734
O       0.16180499     4.63773000     0.60104899    -0.82231289    -0.48301173     1.91274231
O      -0.04736200     0.69380101     0.79842898     0.29513601     4.54178214     1.37995837
O       5.64009522     4.73205124     4.14304881     0.09873811    -0.27460857    -0.57901162
O       5.96970222     0.89941521     4.09119780    -0.41053874    -1.51422554    -0.05007971
O       1.91123021     4.79339024     4.19341082     0.37818628     2.30539336    -0.21038085
O       1.83509325     1.06473124     4.04425983     0.04783231    -1.17308322    -1.01809938
O       3.85601921     3.21889022     3.34716681     1.27551447    -2.03696006    -1.42085950
O       3.70769220    -1.04220179     3.48288781     0.75843252     1.20217784    -1.62353732
O       0.11424820     3.35723224     3.57096582    -1.70811199    -2.50995220    -3.32227147
O      -0.02876978     6.29078623     3.29305479    -0.58512185     1.21768725    -0.52958574
O       5.64998602     6.38249899     1.55151600    -0.43938164     1.42580270     1.87253770
O       5.76300003     2.88406501     1.64373201     1.53499338    -1.00528243    -0.94996229
O       1.79038301     6.64566202     1.62206300     1.73085135     0.18212905     0.86705267
O       2.11187798     3.30449099     1.57774599    -2.87998808    -2.02843788     0.25494888
