# total energy = -19071.79238821 eV

CRYSTAL
PRIMVEC
        5.17600016     0.00000000     0.00000000
        0.00000000     5.50899976     0.00000000
        0.00000000     0.00000000     9.26300011
PRIMCOORD
22 1
Ti      1.95042500     3.72795900     3.35929502     0.39242171    -1.30985593     1.92284135
Ti      3.82028302     2.16802797     5.99512802     0.55052276     2.35170049    -0.46053103
Ti      4.29814998     2.38503102     1.74646199    -0.59451949     1.19358469    -1.08420761
Ti      1.38773702     2.46689199     7.99216702     0.08976624     1.15253650    -3.37494413
Ti      1.53801298     0.67477698     1.26920602     0.32961066     1.03442641    -0.26469543
Ti      3.08588999     0.02223301     7.78302099    -0.66033821    -2.46510495    -1.52933798
Ti      0.53330499     5.27085502     6.40985799     1.26742423    -1.88503146    -2.24105868
Ti      4.42661903     5.05484699     3.49322899     0.08724733    -1.19609897     1.88918174
O       3.70013201     3.29331498     4.40448402    -0.79379831     0.03504466    -0.06649132
O       0.39828298     2.20125401     0.16757900    -1.91701163     0.25547288     2.58070487
O       0.35271997     3.32370801     6.58952599    -1.18401350    -0.66913267    -0.18547328
O       2.59663800     1.20820400     9.01948501     2.03149904     1.61234196     2.40762303
O       1.29337699     5.07569302     8.08860899    -0.68537151    -2.09494746     1.93322758
O       4.16037402     0.51109098     5.21064000     0.29092017    -1.33841319    -2.09338886
O       1.10774399     4.88675701     4.56130702    -0.43802461    -0.05462516     0.10738396
O       0.24578003     3.69473202     2.44038201    -0.85198960     0.57456412    -0.69330851
O       4.68476000     0.93354598     7.38796699    -0.30128944     2.15285258     1.13311515
O       2.36498701     2.28656601     2.12878699     0.98163572    -1.24953115    -0.33160944
O       2.92798699     3.33076300     7.20550498     0.79262409     2.00063113     1.51102272
O       0.00007202     1.00943598     2.46188598     0.05300665    -1.07923149     0.36040529
O       2.14644702     1.23136397     6.51568301    -1.09689009    -1.08412636    -0.07518294
O       2.61563700     5.01923902     2.35222701     1.65656752     2.06294261    -1.44527599
