# total energy = -19906.41192461 eV

CRYSTAL
PRIMVEC
        8.20874334     0.00000000     0.00000000
        0.00002889     4.70431522     0.00000000
        0.00000000     0.00000000    12.41914258
PRIMCOORD
24 1
Ti      2.97529187     2.78777299     4.60741349     0.43506707    -0.43827401     2.55304674
Ti      5.23348055     1.91654262     7.81172961    -0.43506707     0.43827401    -2.55304674
Ti      7.07952286     1.91654428     1.60210848     0.43420781     0.43869695    -2.55284311
Ti      1.12924956     2.78777146    10.81703474    -0.43420781    -0.43869695     2.55284311
Ti      2.97527755     0.43561545     1.60215825     0.43531775    -0.44081066    -2.55186300
Ti      5.23349487     4.26870029    10.81698497    -0.43531775     0.44081066     2.55186300
Ti      1.12923525     0.43561359     7.81167983    -0.43440012    -0.44118835    -2.55368591
Ti      7.07953717     4.26870209     4.60746326     0.43440012     0.44118835     2.55368591
O       2.59812935     1.65646944     6.33739360     0.88783876     1.35943068    -2.10333312
O       5.61064307     3.04784611     6.08174949    -0.88783876    -1.35943068     2.10333312
O       1.50631080     1.65648839     0.12786201    -0.88868491     1.36061544    -2.10592170
O       6.70246169     3.04782722    12.29128069     0.88868491    -1.36061544     2.10592170
O       5.61062876     0.69568850     0.12782173    -0.88722221    -1.35970553    -2.10331872
O       2.59814366     4.00862711    12.29132098     0.88722221     1.35970553     2.10331872
O       6.70244738     0.69566954     6.33743388     0.88807864    -1.35997832    -2.10459938
O       1.50632492     4.00864607     6.08170914    -0.88807864     1.35997832     2.10459938
O       0.29826019     2.86143123     3.35472035    -2.29620398     0.75575086     0.24571451
O       7.91051223     1.84288438     9.06442274     2.29620398    -0.75575086    -0.24571451
O       4.40264199     1.84284040     2.85489064    -2.29401751    -0.75578942    -0.24714815
O       3.80613043     2.86147522     9.56425220     2.29401751     0.75578942     0.24714815
O       0.29824587     0.50927355     2.85485100    -2.29609213     0.75594678    -0.24765055
O       7.91052655     4.19504206     9.56429184     2.29609213    -0.75594678     0.24765055
O       3.80611612     0.50931754     9.06446231     2.29388921     0.75557679    -0.24611868
O       4.40265630     4.19499807     3.35468071    -2.29388921    -0.75557679     0.24611868
