# total energy = -19515.98568635 eV

CRYSTAL
PRIMVEC
        5.17600016     0.00000000     0.00000000
        0.00000000     5.50899976     0.00000000
        0.00000000     0.00000000     9.26300011
PRIMCOORD
23 1
Ti      1.87941100     3.20786101     3.46859198    -1.06488190    -0.67143613     0.68377871
Ti      3.38586703     2.31558101     5.90891499     1.70724476     0.18753453    -2.95525150
Ti      4.29978101     2.03493101     1.45779098    -0.18377018     1.37276417    -0.93897648
Ti      0.86033801     3.47077399     7.79128398    -2.36487560     0.42793020     2.32546288
Ti      2.09346298     0.04188999     1.43567899    -3.05786606     1.77294444    -1.14712921
Ti      3.19154600     5.26954901     7.93985198     0.39089421    -0.80097786     1.29252489
Ti      0.85267500     0.60264399     5.98731699    -1.73577553     0.06735239    -2.51588785
Ti      4.48852202     4.93234600     3.17506101     1.77381296    -0.67128212     2.75802287
O       1.75264701     1.85317000     4.73691401     0.17240616    -0.23854113     1.02377406
O       3.48047201     3.54028698     4.40809502     0.62319039     0.73875920     0.85449771
O       4.91566898     2.71016700     9.19584201     0.20858751     0.24976991    -0.26996413
O       3.42898000     0.55988498     0.32813398     1.36182258     0.39119195    -0.66416941
O       1.44768200     4.78416700     9.09902702     0.94322317    -0.03181253     0.19492929
O       4.45104500     0.81795600     4.97120401    -1.74379532     0.45479361    -0.62863136
O       0.88140202     4.74664299     4.27980499     1.50544831    -0.81208838     0.40933932
O       0.16490698     3.34825200     2.35686498     0.71338498     0.70905575     1.17577234
O       5.13045498     2.17861501     6.80264001    -0.01502887    -0.54414719    -0.70658826
O       2.42861798     1.88206800     2.13119602     1.17135261    -0.99697082    -0.03351434
O       2.56208701     3.68295100     7.13886400     1.00968287    -1.14116965    -1.22790045
O       0.19810200     0.65491903     1.98167000     0.39018562    -1.05056317     0.61648572
O       4.93008101     4.84267501     7.19969700     0.01601412     0.62476519    -0.49017663
O       2.52070302     1.15781903     7.09704402    -1.58641006    -0.16846697    -0.06544206
O       3.02049299     4.21509598     2.14452002    -0.23484671     0.13059461     0.30904389
