# total energy = -19518.18297951 eV

CRYSTAL
PRIMVEC
        7.60600008     0.00000000     0.00000000
        0.00000000     7.60600008     0.00000000
       -1.89786986    -1.89786986     4.85670466
PRIMCOORD
23 1
Ti      3.81392501     6.84115602     1.13295399    -0.37024928    -0.75349600     0.80863590
Ti      3.63194900     2.89352501     1.27150699     1.26313897     0.46514410     0.41764681
Ti     -0.04255299     6.61228099     1.19942897     0.96845933     0.71446510    -0.37987600
Ti      0.14500801     2.69954599     1.11777698    -4.27998667    -0.12825464     0.18600961
Ti      5.67758124     2.80012321     3.77893179    -0.42172664     0.41528834    -2.44069951
Ti      5.67627920    -1.03739077     3.55508579    -1.05426556    -0.76764736     1.16644077
Ti      1.92510223     2.91044820     3.76407181     0.75513096    -0.13618290     0.18461016
Ti      1.80850723    -0.85299578     3.55996481     1.58641700    -0.02881102    -0.42452426
O       3.88417202     4.79356403     0.79399501    -0.51538888    -0.21789567     0.15394820
O       3.93091901     1.08194400     0.86850698    -0.03757283    -0.62175442    -0.56820270
O       0.13310602     4.72706401     0.77609998     0.25648898    -0.61139647     0.60279073
O      -0.18450998     0.85035000     0.69914200     0.41774580    -0.44797915     0.55284292
O       5.88772721     4.67418323     4.12474383    -0.24926803    -0.30026228    -1.13937733
O       5.73391824     0.76596121     4.14549282     0.32867915     2.12094209    -2.48310345
O       2.01353521     4.83711325     4.01892680    -1.00041970    -0.41375930     0.47883883
O       1.67500120     0.97377324     4.10025679     0.04020127     0.37256378    -0.54672832
O       3.75725325     2.90637624     3.17927183     1.14172655    -0.22850148     0.59727777
O       3.76068724     6.39520422     3.06651480     0.54415053     1.07479942     0.45468434
O       0.02900225    -1.09001279     3.22809283    -0.30434648    -0.00473263    -0.22574963
O       5.73427501     6.76794901     1.67968802    -0.28750780    -0.38784540    -0.96164436
O       6.00296000     2.88389203     1.68123200    -0.90272237    -0.07785689     1.87442386
O       1.90153902     6.90943899     1.51234900    -0.19341362    -0.27736711     0.97827735
O       1.78722398     2.63309598     1.72090199     2.31472878     0.24054016     0.71347856
