# total energy = -19514.75727250 eV

CRYSTAL
PRIMVEC
        5.93400000     0.00000000     0.00000000
        0.00000000     9.29699974     0.00000000
        0.00000000     0.00000000     4.64899994
PRIMCOORD
23 1
Ti      4.69750899     6.76698299     2.44927198    -0.01813965     1.94518939    -1.79087969
Ti      4.38718998     2.27354401     2.38200201     0.48266875    -0.01406085    -0.65988338
Ti      1.49712901     7.31139700     2.34262900    -0.53626161    -0.00372167    -1.58954295
Ti      1.43812099     2.32717602     2.26000401    -0.77068229    -0.02709147    -0.06058575
Ti      3.04203802     4.40517602     4.57882300    -1.65548457     1.42765544     0.22877556
Ti      3.00039500     9.25891301     4.57663898    -1.54484636    -0.74331417     0.07115993
Ti      0.01196200     4.69578398     0.04907701     1.83330419     1.34502581     0.74218468
Ti      5.82356299     0.27888800     0.14292099     1.41720287    -1.01873958     0.19274359
O       4.35647600     5.61547298     0.81254601     0.44979872    -0.97236998    -0.16203947
O       4.20098197     0.84279499     0.98593098     0.99374665     1.50232082    -0.04555405
O       1.43584299     5.70760998     0.72468300     0.82338375    -1.05971347     0.10889706
O       1.58272597     0.65528601     1.18765499    -1.39300518     0.51940160    -2.09655954
O       4.52846400     8.55094200     3.85168599    -1.34012477    -1.88102543    -1.04215926
O       4.59605798     3.67595199     3.65418402    -1.95957806     0.56442703    -0.22513308
O       0.92942099     8.44165499     3.74346898     4.08200779    -0.64942336    -0.68475342
O       1.52751501     3.69868502     3.60601302     0.63764256     0.17107201     0.46771418
O       2.88280197     1.25299399     2.99895199     0.87087076     0.62090725     2.68622324
O       0.22105200     5.86960400     3.18622898    -0.55822758     1.31717947    -1.46854114
O       5.91741299     1.43587400     3.20014502    -0.77798371     0.67558075     0.44336145
O       3.17149700     7.71601598     1.54666000    -1.63048470     0.20810337     0.85495974
O       2.79156398     3.30944102     1.28517500     1.28869575    -1.20284169     1.06010659
O       5.89715699     7.87598700     1.34029601    -0.62020791    -0.79845561     1.79428666
O       5.90272198     3.27443600     1.25760699    -0.07429514    -1.92610614     1.17521904
