# total energy = -19957.77824015 eV

CRYSTAL
PRIMVEC
        5.93400000     0.00000000     0.00000000
        0.00000000     9.29699974     0.00000000
        0.00000000     0.00000000     4.64899994
PRIMCOORD
24 1
Ti      4.44755000     7.03625902     2.46165398    -0.03167677    -0.38738106    -0.50590227
Ti      4.43768502     2.20678597     2.27975200    -1.27912867    -1.43301825     2.91707343
Ti      1.46221199     6.94001898     2.27688201    -1.02967758     1.30312144     1.23985145
Ti      1.41224999     2.56267598     2.06639001    -0.25479128    -2.54180767     1.41519175
Ti      2.85419899     4.64621700     0.10768900     2.43203669     1.55977805    -1.50039532
Ti      2.99499602     9.19140602     4.63256100    -0.52991921    -0.59548083    -0.59463416
Ti      5.85612702     4.56037699     0.11644101    -2.30777420     2.81693741    -3.66627903
Ti      0.01029901     0.08182800     0.00680702     0.92323541    -0.80957538     0.33141686
O       4.34023502     5.56585901     0.87247999     0.30348824    -0.44680904     0.10247495
O       4.47542801     0.87993800     0.78802298     1.14799336     1.35003432     1.46142278
O       1.42110598     5.51553298     0.97646300     0.51875522    -0.03964951    -0.00130201
O       1.74631101     0.95290403     0.84628000    -1.99808523     0.89966995     0.71690662
O       4.74058301     8.55508102     3.63898499    -1.21940423    -1.33294008     0.41320831
O       4.48469702     3.69898898     3.62853300    -0.17198115     0.20054509     0.99219808
O       1.56548702     8.10334198     3.79465799    -0.23262013     1.89079099     0.62103246
O       1.43105398     3.67605301     4.01242898     0.17151990    -0.94477997    -2.63967958
O       2.98773401     6.16435298     3.38466701    -0.56286586    -1.00962116    -0.87814930
O       3.17380401     1.24121900     3.31146402    -0.01684896     1.82564487    -2.16887416
O       5.82990999     6.02086900     3.04395100     2.25099857    -0.81063287     1.38334709
O       0.18771198     1.42585402     3.16709298     0.37637776     1.16638112    -1.33728216
O       3.19438598     8.02686999     1.49014398    -1.98759718    -0.77400210    -0.48520026
O       3.04283999     3.12673200     1.35335600    -0.60248863     0.58298757     0.72370667
O       5.83910598     7.93411300     1.47086499     2.19782531     0.27572495    -0.94927761
O       5.71244402     3.37801102     1.38263998     1.90262810    -2.74591811     2.40914512
