# total energy = -4987.85575791 eV

CRYSTAL
PRIMVEC
        3.22418345     0.00000000     0.00000000
        0.00000000     3.73394835     0.00000000
        0.00000000    -0.00005891     4.49399505
PRIMCOORD
6 1
Ti      1.61209177     1.86694457     2.24699752     0.00000000     0.00000000     0.00000000
Ti      0.00000000     0.00000000     0.00000000     0.00000000     0.00000000     0.00000000
O       1.61209177     0.72768000     0.87581343    -0.00000000    -0.64725078    -0.80826643
O       1.61209177     3.00620909     3.61818157    -0.00000000     0.64725078     0.80826643
O       0.00000000     1.13924077     3.12281195    -0.00000000     0.64719267    -0.80792962
O       0.00000000     2.59464838     1.37118310    -0.00000000    -0.64719267     0.80792962
