# total energy = -19954.84186451 eV

CRYSTAL
PRIMVEC
        4.99350698     0.00000000     0.00000000
        1.05242237     5.20935653     0.00000000
        0.00000000     0.00000000     8.98274792
PRIMCOORD
24 1
Ti      2.43357054     3.08705986     3.33253552     1.53186666    -1.09293651     0.61461653
Ti      3.61235856     2.12229680     5.65021275    -1.53186666     1.09293651    -0.61461653
Ti      4.73533523     2.12229867     1.15880272    -2.53323998    -0.46162118     1.33197926
Ti      1.31059389     3.08705819     7.82394565     2.53323998     0.46162118    -1.33197926
Ti      1.90735948     0.48238178     1.15883874     1.53147277    -1.08734076    -0.61467309
Ti      4.13856963     4.72697503     7.82390964    -1.53147277     1.08734076     0.61467309
Ti      0.78438274     0.48237977     5.65017673     2.53290291     0.46536625     1.33201062
Ti      5.26154637     4.72697704     3.33257154    -2.53290291    -0.46536625    -1.33201062
O       1.95105220     1.83430302     4.58382764    -0.58731577    -0.04359796    -0.63965368
O       4.09487690     3.37505364     4.39892063     0.58731577     0.04359796     0.63965368
O       1.28688621     1.83432399     0.09248244     0.88581839    -0.87000995     0.10033451
O       4.75904295     3.37503271     8.89026558    -0.88581839     0.87000995    -0.10033451
O       3.56866582     0.77037542     0.09245328     0.58720316     0.04368692    -0.63962231
O       2.47726328     4.43898124     8.89029474    -0.58720316    -0.04368692     0.63962231
O       4.23283187     0.77035448     4.58385680    -0.88577956     0.87019970     0.10049058
O       1.81309718     4.43900223     4.39889147     0.88577956    -0.87019970    -0.10049058
O       0.82156855     3.16862588     2.42646440    -0.46827725    -0.54810129    -0.94354430
O       5.22436055     2.04073077     6.55628387     0.46827725     0.54810129     0.94354430
O       3.09045855     2.04068212     2.06493831     0.81142786    -1.00721975    -1.11381619
O       2.95547055     3.16867454     6.91780981    -0.81142786     1.00721975     1.11381619
O       0.29535747     0.56394766     2.06490961    -0.46825000    -0.54822445     0.94345226
O       5.75057164     4.64540905     6.91783851     0.46825000     0.54822445    -0.94345226
O       2.42925947     0.56399626     6.55631252    -0.81147388     1.00704877    -1.11398537
O       3.61666963     4.64536039     2.42643570     0.81147388    -1.00704877     1.11398537
