# total energy = -39035.21132383 eV

CRYSTAL
PRIMVEC
        5.93200024     0.00000000     0.00000000
        0.00000000     9.29399984     0.00000000
        0.00000000     0.00000000     9.29399984
PRIMCOORD
46 1
Ti      4.47167699     6.94945802     7.07047101     0.52020044    -0.31474865    -1.05180218
Ti      4.44436599     6.92959001     2.36587401     1.05560125    -0.31808826    -0.42641350
Ti      4.48781901     2.37726302     6.96956802     0.50255547    -0.28999972    -0.17443630
Ti      4.27685297     2.50815200     2.15156098     1.67317171    -0.24921404    -0.09082502
Ti      1.54158800     6.98728398     6.95845398    -0.38882036     0.29978174    -0.23068486
Ti      1.54231202     7.07922900     2.29082001    -0.76683206    -0.73396204    -0.89917116
Ti      1.52481001     2.23988898     6.98267998    -0.46660063    -0.00785704     0.54263332
Ti      1.42850197     2.19024702     2.53372898     0.04372163     0.35882483    -1.52410810
Ti      2.97157998     4.48663402     4.61773499     0.89835201     1.36365809     1.60018167
Ti      2.91074603     4.79102001     9.12031900    -0.51393414    -0.28918134     0.63615004
Ti      2.99851499     9.13117703     4.63968299     0.55893361     1.38215281    -0.12559098
Ti      2.96091198     0.09162598     9.27129401    -1.06625282    -0.47204854     0.33277363
Ti      0.04062700     4.63027802     4.66822702    -0.67453251     1.80086611     0.84051013
Ti      5.89214600     4.71857299     9.22281899     0.49337431    -1.05925890     1.64385007
Ti      0.01514701     9.15184198     4.83103300    -0.85327618     0.36271234     0.89536901
Ti      5.85203002     9.25335299     9.27272702     1.13758270     0.40034045     0.11801265
O       4.34760498     5.46055798     5.68079297     0.59974217     0.35865205    -1.02609191
O       4.33480497     5.68116202     0.73270401     0.49641310    -0.50558731     1.21038326
O       4.55269000     1.02359602     5.41626298    -0.31040374    -0.47139266     0.21178905
O       4.51789999     0.97835401     0.96929699    -0.36662788     0.02112471    -0.23628730
O       1.43256500     5.45156699     5.59064001     0.89775242     1.28744388     0.10789098
O       1.50312502     5.57373100     0.96147802     0.17026443     0.00158251    -0.84818102
O       1.50338997     0.80989800     5.54193702     0.38500587     1.26310889     0.41061998
O       1.41709000     0.87595700     0.83162501     0.10649385     0.90615016     1.82874280
O       4.37481802     8.27335298     8.47882202     0.39873043     0.23718718    -0.40100560
O       4.53085901     8.28470102     3.78972097    -0.23399927     0.75812707     0.19447754
O       4.46472302     3.83518503     8.34154498    -0.45612570    -0.99678724    -0.12111237
O       4.56632500     3.70701898     3.85994301    -1.79204286    -1.09928379    -1.66398619
O       1.61472199     8.62551498     8.12027898    -0.70901384    -1.71854682     1.20338137
O       1.44906300     8.52643199     3.74093602     0.16757582    -0.72504159    -1.37981490
O       1.46392499     3.69284698     8.48476998     0.29252994     0.02651117    -0.10083510
O       1.43177901     3.83280299     3.67035197     0.77320377    -2.05281426    -0.87682904
O       2.96953201     6.01779099     7.75527802    -0.73280015     0.13168758     0.64674196
O       2.92756598     6.14377899     3.15580700    -0.11506925    -1.01330376     1.18673476
O       3.01980099     1.42351601     7.91854000     1.04430973     0.84295165    -0.64600534
O       3.10379200     1.46196302     3.26962700    -1.19804196     0.47322380    -0.82971047
O       0.00853399     5.99701898     7.80084500     0.78289298     0.59230500     0.32559511
O       0.02245601     6.05560202     3.26729301    -0.45182810     0.25047593    -0.22521586
O       5.82632100     1.32264800     7.86173901     0.04215942     0.56112650    -0.14613873
O       3.01995900     7.88538202     6.02797199     0.15321209    -0.33176576    -0.06476560
O       2.97590902     7.93382698     1.35218599    -0.59194453    -0.09729212     0.96531615
O       2.91033099     3.36825902     6.23805599     0.16038059    -1.20959933    -1.11451116
O       0.05872597     7.93828000     6.24656802    -1.02583429     0.09815678    -1.30582393
O       5.82950200     7.84383398     1.43420201     1.08341057     0.61065728    -0.62185830
O       0.20355501     3.16097199     6.11165698    -1.46490148     0.40725698    -0.43128009
O       5.91330801     3.27993198     1.34375201    -0.25868856    -0.84029236     1.66133101
