# total energy = -39038.84989525 eV

CRYSTAL
PRIMVEC
        5.93188753     0.00000000     0.00000000
        0.00000000     9.29428401    -0.00002646
        0.00000000    -0.00002646     9.29428401
PRIMCOORD
46 1
Ti      4.44891576     6.97069300     6.97069300     0.00000000     0.00000000     0.00000000
Ti      4.44891576     6.97070623     2.32355100     0.00000000     0.00000000     0.00000000
Ti      4.44891576     2.32355100     6.97070623    -0.00000000     0.00000000     0.00000000
Ti      4.44891576     2.32356423     2.32356423    -0.00000000     0.00000000     0.00000000
Ti      1.48297199     6.97069300     6.97069300     0.00000000     0.00000000     0.00000000
Ti      1.48297199     6.97070623     2.32355100     0.00000000     0.00000000     0.00000000
Ti      1.48297199     2.32355100     6.97070623    -0.00000000    -0.00000000    -0.00000000
Ti      1.48297199     2.32356423     2.32356423    -0.00000000     0.00000000     0.00000000
Ti      2.96594376     4.64955484     4.64391066    -0.00000000    -0.04839615    -0.03641121
Ti      2.96594376     4.76857800    -0.12144922     0.00000000    -0.01739172     0.01739172
Ti      2.96594376     0.04406376     4.60306502     0.00000000    -0.04725766     0.04725766
Ti      2.96594376     0.00321812    -0.00242607     0.00000000     0.03641121     0.04839615
Ti      0.00000000     4.64391066     4.64955484     0.00000000    -0.03641121    -0.04839615
Ti      0.00000000     4.60306502     0.04406376     0.00000000     0.04725766    -0.04725766
Ti      0.00000000    -0.12144922     4.76857800     0.00000000     0.01739172    -0.01739172
Ti      0.00000000    -0.00242607     0.00321812    -0.00000000     0.04839615     0.03641121
O       4.44891576     5.55406543     5.55406543    -0.00000000     0.03254426     0.03254426
O       4.41282301     5.48646573     0.95659354     0.03468111    -0.00513218     0.02484072
O       4.48500850     0.95659354     5.48646573    -0.03468111     0.02484072    -0.00513218
O       4.44891576     0.94065156     0.94065156     0.00000000    -0.01529627    -0.01529627
O       1.48297199     5.55406543     5.55406543     0.00000000     0.03254426     0.03254426
O       1.51906474     5.48646573     0.95659354    -0.03468111    -0.00513218     0.02484072
O       1.44687925     0.95659354     5.48646573     0.03468111     0.02484072    -0.00513218
O       1.48297199     0.94065156     0.94065156     0.00000000    -0.01529627    -0.01529627
O       4.44891576     8.38732063     8.38732063     0.00000000    -0.03254426    -0.03254426
O       4.48500850     8.45494679     3.69050851    -0.03468111     0.00513218    -0.02484072
O       4.41282301     3.69050851     8.45494679     0.03468111    -0.02484072     0.00513218
O       4.44891576     3.70647695     3.70647695     0.00000000     0.01529627     0.01529627
O       1.48297199     8.38732063     8.38732063    -0.00000000    -0.03254426    -0.03254426
O       1.44687925     8.45494679     3.69050851     0.03468111     0.00513218    -0.02484072
O       1.51906474     3.69050851     8.45494679    -0.03468111    -0.02484072     0.00513218
O       1.48297199     3.70647695     3.70647695     0.00000000     0.01529627     0.01529627
O       2.96594376     6.06849789     7.87288812     0.00000000    -0.03870874     0.03870874
O       2.96594376     6.08773749     3.25850228    -0.00000000     0.01343608     0.02632913
O       2.96594376     1.38859972     7.85367498    -0.00000000    -0.02632913    -0.01343608
O       2.96594376     1.45199079     3.19513768     0.00000000     0.03604225    -0.03604225
O       0.00000000     6.03415634     7.90722968     0.00000000     0.01742797    -0.01742797
O       0.00000000     6.06934598     3.24279858     0.00000000     0.01541865     0.02800421
O       0.00000000     1.40430343     7.87206650    -0.00000000    -0.02800421    -0.01541865
O       2.96594376     7.90722968     6.03415634     0.00000000    -0.01742797     0.01742797
O       2.96594376     7.87206650     1.40430343     0.00000000    -0.01541865    -0.02800421
O       2.96594376     3.24279858     6.06934598    -0.00000000     0.02800421     0.01541865
O       0.00000000     7.87288812     6.06849789     0.00000000     0.03870874    -0.03870874
O       0.00000000     7.85367498     1.38859972    -0.00000000    -0.01343608    -0.02632913
O       0.00000000     3.25850228     6.08773749    -0.00000000     0.02632913     0.01343608
O       0.00000000     3.19513768     1.45199079     0.00000000    -0.03604225     0.03604225
