# total energy = -4980.94046840 eV

CRYSTAL
PRIMVEC
        3.32775469     0.00000000     0.00000000
       -0.00000741     3.32775469     0.00000000
       -1.66390344    -1.66390714     4.24695508
PRIMCOORD
6 1
Ti     -0.00014654     2.49594205     1.06173865     0.00364480    -0.00346456     0.00153443
Ti      1.66399029    -0.83209461     3.18521615    -0.00364480     0.00346456    -0.00153443
O       0.00003324     0.83193302     0.69179423     0.00134597     0.00611254     3.59591305
O       1.66381041     0.83191434     3.55516062    -0.00134597    -0.00611254    -3.59591305
O      -0.00001880    -0.83191857     2.81527173     0.00610869     0.00133440     3.59769817
O       1.66386240     2.49576588     1.43168312    -0.00610869    -0.00133440    -3.59769817
