# total energy = -19925.53944419 eV

CRYSTAL
PRIMVEC
        5.65192183     0.00000000     0.00000000
        0.00002224     4.01023593     0.00000000
        0.00000000     0.00000000     8.78098727
PRIMCOORD
24 1
Ti      2.04856309     2.37646208     3.25768364    -0.85013249     3.12294919    -5.49938344
Ti      3.60338108     1.63377385     5.52330372     0.85013249    -3.12294919     5.49938344
Ti      4.87442658     1.63377524     1.13277493    -0.84626812    -3.12309034     5.50129506
Ti      0.77751759     2.37646088     7.64821248     0.84626812     3.12309034    -5.50129506
Ti      2.04855197     0.37134421     1.13281013    -0.84978205     3.12269105     5.49779039
Ti      3.60339220     3.63889186     7.64817728     0.84978205    -3.12269105    -5.49779039
Ti      0.77750647     0.37134272     5.52326847     0.84578295     3.12307080     5.50219803
Ti      4.87443770     3.63889335     3.25771885    -0.84578295    -3.12307080    -5.50219803
O       1.78887682     1.41207226     4.48087060     2.04603092    -3.52032644     4.62417446
O       3.86306735     2.59816371     4.30011676    -2.04603092     3.52032644    -4.62417446
O       1.03713292     1.41208842     0.09040519    -2.04504953    -3.52169916     4.62491751
O       4.61481135     2.59814755     8.69058188     2.04504953     3.52169916    -4.62491751
O       3.86305627     0.59304570     0.09037668    -2.04503256     3.52068794     4.62407959
O       1.78888790     3.41719023     8.69061039     2.04503256    -3.52068794    -4.62407959
O       4.61480023     0.59302959     4.48089906     2.04481556     3.52180946     4.62489463
O       1.03714390     3.41720643     4.30008825    -2.04481556    -3.52180946    -4.62489463
O       0.20536103     2.43925282     2.37196374     3.41651272    -0.98972390     2.06275364
O       5.44658314     1.57098316     6.40902362    -3.41651272     0.98972390    -2.06275364
O       3.03132827     1.57094576     2.01855787     3.41776202     0.99000775    -2.06324575
O       2.62061590     2.43929021     6.76242935    -3.41776202    -0.99000775     2.06324575
O       0.20534991     0.43413481     2.01852979     3.41642298    -0.98942231    -2.06360236
O       5.44659426     3.57610112     6.76245738    -3.41642298     0.98942231     2.06360236
O       2.62060483     0.43417220     6.40905160    -3.41798159    -0.98999670    -2.06323623
O       3.03133934     3.57606378     2.37193572     3.41798159     0.98999670     2.06323623
