# total energy = -4982.49224847 eV

CRYSTAL
PRIMVEC
        4.52574637     0.00000000     0.00000000
       -0.00001008     4.52574637     0.00000000
       -2.26290868    -2.26291372     5.77585891
PRIMCOORD
6 1
Ti     -0.00019930     3.39448119     1.44396457    -0.00116728     0.00116728     0.00000000
Ti      2.26302679    -1.13164867     4.33189396     0.00116728    -0.00116728     0.00000000
O       0.00004521     1.13142890     0.94084016    -0.00027948    -0.00253922    -1.30588024
O       2.26278216     1.13140350     4.83501844     0.00027948     0.00253922     1.30588024
O      -0.00002556    -1.13140926     3.82876955    -0.00253922    -0.00027948    -1.30588024
O       2.26285286     3.39424160     1.94708905     0.00253922     0.00027948     1.30588024
