# total energy = -19896.42534864 eV

CRYSTAL
PRIMVEC
        7.27969574     0.00000000     0.00000000
        0.00002292     2.93881987     0.00000000
        0.00000000     0.00000000    11.26715399
PRIMCOORD
24 1
Ti      2.63855326     1.74154190     4.18003379    -0.79157148     0.52136052    -0.08359842
Ti      4.64116561     1.19727787     7.08712031     0.79157148    -0.52136052     0.08359842
Ti      6.27827689     1.19727888     1.45349824    -0.78907442    -0.52194108     0.08655905
Ti      1.00144198     1.74154105     9.81365596     0.78907442     0.52194108    -0.08655905
Ti      2.63854190     0.27213201     1.45354341    -0.79073947     0.51835979     0.08467083
Ti      4.64117697     2.66668786     9.81361078     0.79073947    -0.51835979    -0.08467083
Ti      1.00143063     0.27213096     7.08707514     0.78970203     0.51818264     0.08498579
Ti      6.27828824     2.66668891     4.18007896    -0.78970203    -0.51818264    -0.08498579
O       2.30407783     1.03480842     5.74954243     6.86499300    -0.96685985     2.60443771
O       4.97564109     1.90401135     5.51761167    -6.86499300     0.96685985    -2.60443771
O       1.33582890     1.03482025     0.11600167    -6.86203674    -0.96707453     2.60374634
O       5.94389007     1.90399952    11.15115212     6.86203674     0.96707453    -2.60374634
O       4.97562973     0.43460142     0.11596512    -6.86046965     0.96726685     2.60394688
O       2.30408914     2.50421835    11.15118867     6.86046965    -0.96726685    -2.60394688
O       5.94387871     0.43458958     5.74957902     6.86344828     0.96780396     2.60591044
O       1.33584011     2.50423024     5.51757507    -6.86344828    -0.96780396    -2.60591044
O       0.26450214     1.78755683     3.04353937     1.51039486    -0.62468060     1.84135175
O       7.01521672     1.15126294     8.22361473    -1.51039486     0.62468060    -1.84135175
O       3.90435960     1.15123562     2.59007346     1.51140170     0.62487703    -1.84083804
O       3.37535932     1.78758420     8.67708044    -1.51140170    -0.62487703     1.84083804
O       0.26449079     0.31814689     2.59003747     1.51013235    -0.62393755    -1.84188705
O       7.01522808     2.62067288     8.67711642    -1.51013235     0.62393755     1.84188705
O       3.37534796     0.31817421     8.22365061    -1.51079312    -0.62428928    -1.84254577
O       3.90437096     2.62064556     3.04350344     1.51079312     0.62428928     1.84254577
