# total energy = -4983.80498078 eV

CRYSTAL
PRIMVEC
        5.02015587     0.00000000     0.00000000
       -0.00000815     3.34677019     0.00000000
       -2.51010752    -1.67343617     5.56148906
PRIMCOORD
6 1
Ti     -0.00021576     2.51019922     1.39037197    -0.00307170    -0.00398933     6.69268146
Ti      2.51025602    -0.83686555     4.17111633     0.00307170     0.00398933    -6.69268146
O       0.00005283     0.83668346     0.90592099     0.00147941     0.00342677    -2.23500733
O       2.50998732     0.83665016     4.65556738    -0.00147941    -0.00342677     2.23500733
O      -0.00002151    -0.83668654     3.68666540    -0.00237827    -0.00007045    -2.36677796
O       2.51006160     2.51002010     1.87482302     0.00237827     0.00007045     2.36677796
