# total energy = -39040.39077974 eV

CRYSTAL
PRIMVEC
        7.60629642    -0.00000847    -0.00005503
       -0.00000847     7.60629642    -0.00005503
       -3.80314186    -3.80314186     9.70738094
PRIMCOORD
46 1
Ti      1.91914038     4.73897591     6.07063856    -0.01147047    -0.00437088     0.02281906
Ti      3.80315036     6.63987580     1.20829474    -0.00015684     0.03571932    -0.01297636
Ti      1.81835102     0.95813327     6.01540365    -0.00207977    -0.00658203     0.01367005
Ti      3.80298651     2.86986695     1.19352793     0.00022317    -0.01324350    -0.02285557
Ti     -1.91946804     4.73892108     6.07068857     0.01161805    -0.00441819     0.02301858
Ti      0.00002384     6.67503283     1.37893070    -0.00008973    -0.00014141    -0.03020533
Ti     -1.81831956     0.95807414     6.01552210     0.00200649    -0.00661571     0.01348107
Ti     -0.00014963     2.78705944     1.16424253     0.00019026     0.02114630    -0.00536795
Ti      3.80318934     0.92097291     8.63266849    -0.00008613     0.02139699     0.00269040
Ti      5.71232512     2.85830148     3.60725868    -0.01831912     0.00914310     0.01675023
Ti      3.80320905    -2.80745740     8.48830771    -0.00001954    -0.02861587    -0.00316014
Ti      5.67260625    -0.95721231     3.66624946     0.00018949    -0.00110352     0.00141951
Ti      0.00018768     0.95601795     8.42938980    -0.00007816    -0.02868967     0.01265780
Ti      1.89424246     2.85836099     3.60723049     0.01822064     0.00907574     0.01688984
Ti      0.00007203    -2.87829715     8.49463517     0.00002828    -0.03139550    -0.00729139
Ti      1.93376297    -0.95716929     3.66623474    -0.00003368    -0.00100402     0.00153032
O       2.00625089     2.83097319     5.64452011    -0.01015226     0.00761227     0.00706899
O       3.80316384     4.75202973     0.75353225     0.00001337     0.00671727     0.03214420
O       2.04928310    -0.92411568     5.70214075     0.00037898    -0.01620978    -0.00459122
O       3.80314672     0.95545417     0.76019153     0.00002828    -0.00783030    -0.00250348
O      -2.00630810     2.83092952     5.64456278     0.00998283     0.00760841     0.00698698
O       0.00006323     4.84286005     0.80625309    -0.00000514    -0.02278101     0.04338507
O      -2.04932629    -0.92413142     5.70220860    -0.00054199    -0.01618999    -0.00465678
O       0.00012049     0.86612903     0.78382013    -0.00006582     0.02289774    -0.00989027
O       5.72939329     4.75174735     4.08889494     0.01521939    -0.00617656     0.00607398
O       3.80306554    -0.95124261     8.90786359     0.00009282     0.01307792     0.02685133
O       5.66364294     0.95582197     4.04804776    -0.01469489     0.00275005    -0.01268711
O      -0.00001028     2.83716500     8.89713288    -0.00005374     0.00533376    -0.01974402
O       1.87682453     4.75178356     4.08888107    -0.01513738    -0.00618428     0.00612900
O      -0.00003978    -0.92663194     8.83421582    -0.00000514     0.01137302     0.00077005
O       1.94273732     0.95586317     4.04803039     0.01466635     0.00267703    -0.01258915
O       2.03607630     1.10935487     8.02223096    -0.00608375     0.01995768    -0.03240285
O       3.80316737     2.88679547     3.16317918     0.00000129     0.01925166    -0.02107483
O       1.92032678    -2.97136861     8.09479655    -0.01125861     0.01882768     0.01631057
O       3.80317250    -0.98402300     3.23206422    -0.00003060    -0.01856131    -0.03277309
O      -2.03616667     1.10939916     8.02211663     0.00616628     0.01993557    -0.03217711
O       0.00000912     2.82892781     3.22499532     0.00004988    -0.01456325     0.00138120
O      -1.92035568    -2.97137061     8.09481609     0.01125527     0.01886496     0.01626146
O       0.00000492    -0.92595002     3.32647114     0.00003060     0.00075719    -0.00924440
O       3.80308830     4.71290232     6.49846637     0.00000206    -0.00079576    -0.01410585
O       5.68924568     6.65845445     1.67531698    -0.01046722    -0.00782490    -0.00411788
O       5.72113222     2.85200056     1.59622607    -0.02438692    -0.00123490    -0.00509696
O      -0.00003589     4.78147939     6.47533572     0.00005502    -0.00634728     0.02337519
O       1.91708558     6.65844602     1.67532906     0.01046285    -0.00779790    -0.00410348
O       0.00001530     0.91120039     6.45087695    -0.00012701    -0.01422669    -0.00292000
O       1.88516835     2.85206392     1.59625981     0.02446277    -0.00121947    -0.00512987
