# total energy = -19069.24987713 eV

CRYSTAL
PRIMVEC
        7.60600008     0.00000000     0.00000000
        0.00000000     7.60600008     0.00000000
       -1.89786986    -1.89786986     4.85670466
PRIMCOORD
22 1
Ti      3.84967501     6.74658400     1.12850901     0.79535872     0.05497355     0.79313780
Ti      3.68819297     3.01060601     1.25425698     1.83181449    -3.57837606    -1.66161434
Ti     -0.23041600     6.76220198     1.24759400     2.40885845    -0.76458363     0.45973064
Ti      0.22427500     2.53475299     1.00739701    -1.75149552     2.71319310     1.61123793
Ti      5.81157220     2.98493424     3.70182881     0.05738499    -1.68899043     0.71245912
Ti     -1.22390977    -0.24529577     3.52713984    -1.06016316    -1.14224180     0.68072553
Ti      1.91056922     2.82789523     3.72694182    -1.70201127    -1.93386702     1.85030665
Ti      1.42168823    -1.03534275     3.77590881     1.94187369     2.15374373     0.22766998
O       3.89492803     4.72191999     1.01894799    -0.68090602     2.72023664    -1.72227852
O       4.25447100     0.88264098     0.61356700    -0.70069195    -1.41426821     1.27672983
O       0.61904001     4.47273000     0.65644702     0.50343787     0.34322697     0.69037539
O       6.99811200     0.84519000     0.86542002     0.50794604     0.38716483     0.71835286
O       5.15961821     4.51257022     4.44907583    -0.64084024    -0.74617812    -4.23909094
O       5.11361921     1.04281320     4.17027583     1.36250855     0.07791320    -1.53481854
O       1.84756823     4.71079224     3.99518081    -0.62275381     0.19435902     1.18232737
O       1.86592523     0.97242924     4.08059484    -1.07515758    -0.40490545     0.59268501
O       3.45455021     2.44410424     3.01518482    -0.68844629     1.35250978    -0.17791783
O       0.13730620     2.83109421     2.97672580    -0.04179355    -0.13616696     0.20537260
O       5.76051099     6.29834103     1.97784098    -1.63047544     0.82842980     1.22412144
O       5.40944998     2.87454400     1.87144498     1.40782040     0.36967258    -0.59334887
O       2.21391098     6.65907999     2.10731801     0.13239026     0.45744339    -1.04907836
O       1.86224401     1.83956501     0.61321203    -0.35465887     0.15671137    -1.24708474
