# total energy = -19517.88857792 eV

CRYSTAL
PRIMVEC
        7.60600008     0.00000000     0.00000000
        0.00000000     7.60600008     0.00000000
       -1.89786986    -1.89786986     4.85670466
PRIMCOORD
23 1
Ti      3.81381500     6.55742197     1.21179701     0.22375676     1.34935581     0.51035671
Ti      3.71833502     2.80153501     1.29162800     0.63089804    -0.91427794     1.50417381
Ti      0.01618499     6.75751802     1.16224501     0.13384782    -0.41515515     0.34104076
Ti     -0.01085898     2.91836401     1.20731297    -0.21300106     0.02679836    -1.91775288
Ti      5.62167022     2.94126320     3.67788280    -1.41780862    -2.22662167    -1.91966141
Ti      5.77218321    -0.96399775     3.60963481    -0.25630463     1.62678180    -0.15776655
Ti      1.77355925     2.71831622     3.73563483     2.05959349     0.83592174    -0.93101403
Ti      1.89876624    -0.99450477     3.61900083     0.41816926     0.02216137     0.56219994
O       3.96582402     4.69554701     0.91061901    -1.01984490     0.43382960    -0.34522189
O       3.87709697     0.93332299     0.80941799    -0.27641786    -0.66047345    -0.76076065
O      -0.09230301     4.82207297     0.64028500     0.75489597     0.66454582     2.55029308
O      -0.10231600     0.95587298     0.69782800     0.60311238    -0.58144080    -0.20361011
O       5.77439824     4.74594522     3.82781782     0.55612416     2.05031438     0.88307270
O       5.70036121     1.06146622     4.10976981     0.79854329    -1.45122269    -0.65320906
O       1.80315920     4.68396523     3.82632580    -0.27662792     0.77791378     1.64652376
O       2.14775620     0.97709621     4.09366779    -1.45689018    -1.17579548     0.51970602
O       3.71263424     2.86465823     3.30535181     0.89265881     0.43219283    -1.46617366
O       3.87075823    -0.73432980     3.08000882    -0.13107463    -1.05012685     0.38803129
O       0.06349021    -0.69124477     3.15482580    -0.03125768    -0.26094264     0.91942915
O       5.86434599     6.60875503     1.67651899    -1.76145212    -0.02761006    -1.03331132
O       5.88043901     2.70744798     1.65608502    -1.56481253     0.45645248     1.11718099
O       1.88816100     6.60561902     1.69297402     0.92558745    -0.18451580    -1.46703884
O       1.78916802     2.65896402     1.70857702     0.40830496     0.27191509    -0.08648834
