# total energy = -19517.72802973 eV

CRYSTAL
PRIMVEC
        5.17600016     0.00000000     0.00000000
        0.00000000     5.50899976     0.00000000
        0.00000000     0.00000000     9.26300011
PRIMCOORD
23 1
Ti      1.80765398     3.13552301     3.41934601    -0.33324518    -0.08384371     2.30667171
Ti      3.41122298     2.19517302     5.89749000     0.16917968     0.83107135    -2.88453945
Ti      4.34799900     2.10746099     1.40295002     0.92604203    -0.47808575    -0.06084441
Ti      0.93896402     3.38185502     7.76286600    -1.04719297     0.43430319     0.64170439
Ti      1.95299701     0.27902098     1.32221101    -0.60584109    -0.21841967    -0.10804037
Ti      3.31663900     5.17781598     7.94440401    -0.82120166     1.85334466     0.13777724
Ti      0.74039502     0.56334300     5.91740199    -0.39009177    -0.06983350    -3.01164584
Ti      4.44992198     4.94657102     3.38950099     0.77310144    -0.08875837     2.52635148
O       1.63048099     1.87810801     4.82633798     0.08674083     0.69354634    -0.82102039
O       3.49097401     3.49784501     4.54670300    -0.10051809     0.42374830    -0.46480394
O       0.23866503     2.64565500     9.26057198    -0.01073333    -0.11875390     0.27856499
O       3.39725799     0.92350199     0.19976103     0.23636983    -0.79976225    -1.01283196
O       1.68300998     4.80707498     8.97787099     0.12988138    -0.23414634     0.76877607
O       4.29017702     0.78166698     4.76033201    -0.70465093     0.30974323     0.20354377
O       0.90915599     4.73568003     4.33095198     0.45806971    -0.39057385     1.33933596
O       0.07208902     3.35205498     2.53018900     0.25983630     0.16117018    -0.29635060
O       5.04899000     2.08737501     6.79763098     0.17180375     0.27998167     0.24998100
O       2.60482199     1.80966501     2.23119301    -0.01924986     1.66292201     0.54019874
O       2.69824998     3.60995502     7.13081500     0.24490255    -1.43859909    -0.29172544
O       0.16217902     0.70955203     2.12922103     0.29407749    -0.66478597    -0.76847911
O       5.02815502     4.86288699     7.12594001     0.17047346    -0.89861426     0.65381841
O       2.40541901     0.93967899     6.85571501    -0.05741970    -1.41980020     1.69232978
O       2.73445401     4.59968999     2.49237198     0.16966690     0.25414593    -1.61877178
