# total energy = -19960.24139926 eV

CRYSTAL
PRIMVEC
        5.35857851     0.00000000     0.00000000
        0.28500866     5.69602200     0.00000000
        0.00000000     0.00000000     9.59367617
PRIMCOORD
24 1
Ti      2.11112277     3.37545722     3.55918543     0.17947309    -0.56354206     0.40613495
Ti      3.53246417     2.32056457     6.03449085    -0.17947309     0.56354206    -0.40613495
Ti      4.73754059     2.32056651     1.23761437    -0.19242760     0.02904962    -0.07915890
Ti      0.90604641     3.37545550     8.35606202     0.19242760    -0.02904962     0.07915890
Ti      1.96861855     0.52744644     1.23765282     0.17898407    -0.56415424    -0.41133192
Ti      3.67496839     5.16857552     8.35602357    -0.17898407     0.56415424     0.41133192
Ti      0.76354219     0.52744433     6.03445234     0.19210056    -0.02920671    -0.07324793
Ti      4.88004481     5.16857763     3.55922393    -0.19210056     0.02920671     0.07324793
O       1.79638024     2.00566609     4.89557952     0.58937265     0.62353723    -0.12350170
O       3.84720670     3.69035570     4.69809676    -0.58937265    -0.62353723     0.12350170
O       1.08365416     2.00568908     0.09877227    -0.40987359     0.27280032     0.18276539
O       4.55993284     3.69033277     9.49490374     0.40987359    -0.27280032    -0.18276539
O       3.70470248     0.84234475     0.09874116    -0.58983057    -0.62357939    -0.12313223
O       1.93888446     4.85367704     9.49493484     0.58983057     0.62357939     0.12313223
O       4.41742862     0.84232182     4.89561068     0.40905238    -0.27150602     0.18315234
O       1.22615827     4.85370009     4.69806560    -0.40905238     0.27150602    -0.18315234
O       0.36804797     3.46464335     2.59149132     0.08380925     0.02733546     0.16191965
O       5.27553903     2.23137844     7.00218501    -0.08380925    -0.02733546    -0.16191965
O       2.98563692     2.23132537     2.20537733     0.29472155     0.20820081    -0.10571275
O       2.65795008     3.46469642     7.38829879    -0.29472155    -0.20820081     0.10571275
O       0.22554375     0.61663240     2.20534671     0.08337782     0.02731001    -0.16312473
O       5.41804325     5.07938939     7.38832940    -0.08337782    -0.02731001     0.16312473
O       2.51544586     0.61668547     7.00221557    -0.29492698    -0.20787480    -0.10441974
O       3.12814114     5.07933632     2.59146065     0.29492698     0.20787480     0.10441974
