# total energy = -19913.64710177 eV

CRYSTAL
PRIMVEC
        7.86196828     0.00000000     0.00000000
        0.00002575     3.58607636     0.00000000
        0.00000000     0.00000000    11.96530125
PRIMCOORD
24 1
Ti      2.84960049     2.12510554     4.43904143    -0.07939878     0.01517980     2.25417697
Ti      5.01239319     1.46097087     7.52625999     0.07939878    -0.01517980    -2.25417697
Ti      6.78045007     1.46097209     1.54356143    -0.07943760    -0.01505073    -2.25456932
Ti      1.08154361     2.12510444    10.42174011     0.07943760     0.01505073     2.25456932
Ti      2.84958779     0.33206742     1.54360943    -0.07939878     0.01517980    -2.25417697
Ti      5.01240589     3.25400905    10.42169211     0.07939878    -0.01517980     2.25417697
Ti      1.08153091     0.33206609     7.52621199     0.07943760     0.01505073    -2.25456932
Ti      6.78046277     3.25401039     4.43908942    -0.07943760    -0.01505073     2.25456932
O       2.48837157     1.26271844     6.10580168     2.87995645     0.42039223    -1.07197352
O       5.37362211     2.32335792     5.85949974    -2.87995645    -0.42039223     1.07197352
O       1.44267648     1.26273290     0.12318947    -2.88055012     0.42022794    -1.07303873
O       6.41931726     2.32334351    11.84211160     2.88055012    -0.42022794     1.07303873
O       5.37360947     0.53031974     0.12315066    -2.87995645    -0.42039223    -1.07197352
O       2.48838422     3.05575667    11.84215042     2.87995645     0.42039223     1.07197352
O       6.41930462     0.53030528     6.10584050     2.88055012    -0.42022794    -1.07303873
O       1.44268901     3.05577114     5.85946092    -2.88055012     0.42022794     1.07303873
O       0.28565903     2.18125491     3.23212640    -1.21491894     0.28799580     0.26972296
O       7.57633465     1.40482145     8.73317502     1.21491894    -0.28799580    -0.26972296
O       4.21665318     1.40478804     2.75056235    -1.21320350    -0.28777726    -0.27025878
O       3.64534051     2.18128838     9.21473890     1.21320350     0.28777726     0.27025878
O       0.28564639     0.38821673     2.75052416    -1.21491894     0.28799580    -0.26972296
O       7.57634730     3.19785969     9.21477708     1.21491894    -0.28799580     0.26972296
O       3.64532787     0.38825014     8.73321314     1.21320350     0.28777726    -0.27025878
O       4.21666582     3.19782628     3.23208822    -1.21320350    -0.28777726     0.27025878
