# total energy = -19072.66690235 eV

CRYSTAL
PRIMVEC
        5.17600016     0.00000000     0.00000000
        0.00000000     5.50899976     0.00000000
        0.00000000     0.00000000     9.26300011
PRIMCOORD
22 1
Ti      1.99326899     3.57447199     3.28808100     0.40844946    -1.63325609     0.40756705
Ti      3.53155698     2.07157701     5.89221902    -0.91030044     1.31949732    -2.52114345
Ti      4.56102200     2.29690301     1.36071998    -1.77343500     0.10722713    -0.99325403
Ti      0.50718300     2.90493598     8.07349903    -0.14496708     3.47468215    -2.26774777
Ti      1.87678898     0.58551902     1.43708798     0.88660232     0.45222559    -2.41817073
Ti      3.15086602     5.11303002     8.17690502    -1.27897209     0.83262379     1.26705862
Ti      0.75488299     0.09192100     5.89801701     0.19647658    -0.30292389     0.65585292
Ti      4.53132003     5.01044198     3.35400299     0.21131750    -1.26221672     0.22528657
O       3.60470002     3.26681400     4.19540000     0.58117417     0.24692344     2.65954984
O       0.79266799     1.86967699     0.17120800     1.70653925    -0.59313341     0.14684270
O       4.20275498     3.80018403     8.95204502     0.80658236    -1.53919328    -0.02401977
O       3.46798602     0.85313200     0.31063101    -0.07265066     0.19214092    -2.22791031
O       1.68577499     4.84499000     9.21094901    -0.55651986    -0.53710828     0.10616757
O       4.34444701     0.72634901     4.74008400    -0.55022451     0.16732874     0.70295941
O       1.21067097     5.08384802     4.08174299    -0.47251571    -0.00927783     2.36016533
O       0.43291298     3.55185300     2.19810498    -0.86931010     0.08263014     0.91046679
O       4.86453199     1.57601198     6.99798802     1.22863115    -1.00636795     0.64267344
O       2.84041398     2.23469801     2.10199602    -1.49678806    -0.85264960     0.28769138
O       1.59683098     3.99577302     6.87621698     0.22595763    -0.00554099    -0.67632971
O       0.02137500     0.65894998     1.97670500     0.44219006    -0.24584383     1.94449802
O       2.22077499     1.08328399     6.76422503     0.17219713    -0.38053652     0.19955547
O       2.88460202     4.82458302     2.39266001     1.25956591     1.49276891    -1.38775987
