# total energy = -19926.80180684 eV

CRYSTAL
PRIMVEC
        6.08195676     0.00000000     0.00000000
        3.04616295     5.71149369     0.00000000
        0.00000000     0.00000000    11.26436627
PRIMCOORD
24 1
Ti      4.00957017     3.38462587     4.17899956     0.79185045    -3.00752024     0.58809044
Ti      5.11854970     2.32686796     7.08536682    -0.79185045     3.00752024    -0.58809044
Ti      6.48630572     2.32686999     1.45313863    -2.10930759    -1.10296150     0.80332991
Ti      2.64181434     3.38462410     9.81122782     2.10930759     1.10296150    -0.80332991
Ti      2.48648893     0.52887922     1.45318381     0.79185045    -3.00752024    -0.58809044
Ti      6.64163106     5.18261483     9.81118270    -0.79185045     3.00752024     0.58809044
Ti      1.11873281     0.52887702     7.08532164     2.10930759     1.10296150     0.80332991
Ti      8.00938717     5.18261697     4.17904469    -2.10930759    -1.10296150    -0.80332991
O       2.99758353     2.01111406     5.74811991     1.68448971     2.05627677    -1.11251289
O       6.13053641     3.70037981     5.51624648    -1.68448971    -2.05627677     1.11251289
O       2.18865432     2.01113706     0.11597297     0.66686213    -1.31182823     1.60969989
O       6.93946570     3.70035687    11.14839306    -0.66686213     1.31182823    -1.60969989
O       4.60745506     0.84463294     0.11593641    -1.68448971    -2.05627677    -1.11251289
O       4.52066488     4.86686088    11.14842961     1.68448971     2.05627677     1.11251289
O       5.41638434     0.84460999     5.74815640    -0.66686213     1.31182823     1.60969989
O       3.71173555     4.86688390     5.51620992     0.66686213    -1.31182823    -1.60969989
O       2.07382052     3.47405419     3.04278635     0.68317707     2.86435962     2.67645639
O       7.05429943     2.23743969     8.22157998    -0.68317707    -2.86435962    -2.67645639
O       4.45524774     2.23738634     2.58943262     0.90618462     1.80394270     1.47433178
O       4.67287221     3.47410753     8.67493353    -0.90618462    -1.80394270    -1.47433178
O       0.55073916     0.61830732     2.58939666     0.68317707     2.86435962    -2.67645639
O       8.57738077     5.09318650     8.67496948    -0.68317707    -2.86435962     2.67645639
O       3.14979085     0.61836066     8.22161587    -0.90618462    -1.80394270     1.47433178
O       5.97832908     5.09313316     3.04275040     0.90618462     1.80394270    -1.47433178
