# total energy = -19941.26999077 eV

CRYSTAL
PRIMVEC
        5.86803886     0.00000000     0.00000000
        1.53735140     6.05319500     0.00000000
        0.00000000     0.00000000    10.58680989
PRIMCOORD
24 1
Ti      3.03791493     3.58711793     3.92763116     0.14024190    -2.04173435     0.88121483
Ti      4.36747550     2.46607747     6.65917933    -0.14024190     2.04173435    -0.88121483
Ti      5.68712351     2.46607956     1.36573182    -0.53846813    -0.52736611     0.04650999
Ti      1.71826695     3.58711607     9.22107879     0.53846813     0.52736611    -0.04650999
Ti      2.26923936     0.56052047     1.36577426     0.14024190    -2.04173435    -0.88121483
Ti      5.13615110     5.49267516     9.22103634    -0.14024190     2.04173435     0.88121483
Ti      0.94959125     0.56051815     6.65913688     0.53846813     0.52736611     0.04650999
Ti      6.45579920     5.49267742     3.92767361    -0.53846813    -0.52736611    -0.04650999
O       2.39859892     2.13143299     5.40236830     1.63001316     1.91194630    -0.66059532
O       5.00679145     3.92176241     5.18444218    -1.63001316    -1.91194630     0.66059532
O       1.61811620     2.13145742     0.10899717    -0.56325743    -0.02920260     0.93142257
O       5.78727431     3.92173808    10.47781302     0.56325743     0.02920260    -0.93142257
O       4.23811585     0.89516478     0.10896282    -1.63001316    -1.91194630    -0.66059532
O       3.16727458     5.15803062    10.47784737     1.63001316     1.91194630     0.66059532
O       5.01859870     0.89514039     5.40240265     0.56325743     0.02920260     0.93142257
O       2.38679168     5.15805507     5.18440783    -0.56325743    -0.02920260    -0.93142257
O       1.14830369     3.68189647     2.85976164     0.39653830     1.38422281     1.42281302
O       6.25708668     2.37129893     7.72704885    -0.39653830    -1.38422281    -1.42281302
O       3.74946339     2.37124248     2.43367730     0.84024171     1.33799307     0.50454602
O       3.65592705     3.68195297     8.15313301    -0.84024171    -1.33799307    -0.50454602
O       0.37962810     0.65529884     2.43364349     0.39653830     1.38422281    -1.42281302
O       7.02576234     5.39789661     8.15316682    -0.39653830    -1.38422281     1.42281302
O       2.88725144     0.65535528     7.72708261    -0.84024171    -1.33799307     0.50454602
O       4.51813899     5.39784011     2.85972782     0.84024171     1.33799307    -0.50454602
