# total energy = -39040.31339679 eV

CRYSTAL
PRIMVEC
        7.60629642    -0.00000847    -0.00005503
       -0.00000847     7.60629642    -0.00005503
       -3.80314186    -3.80314186     9.70738094
PRIMCOORD
46 1
Ti      1.89273103     4.83305647     6.08559697     0.02854543    -0.21300646     0.11447095
Ti      3.79429833     6.73475878     1.23194822     0.02850532    -0.21442366     0.11485713
Ti      1.91174809     0.86791224     6.08580094     0.10274801     0.20823347    -0.03718819
Ti      3.81332485     2.76957430     1.23204839     0.10274518     0.20718625    -0.03715451
Ti     -1.89184253     4.74576068     6.06390351    -0.02735552     0.01158025     0.03626208
Ti      0.00972671     6.64733730     1.21019251    -0.02728044     0.01159902     0.03639681
Ti     -1.90728725     0.95980125     6.06467464    -0.10149202    -0.01856337    -0.11313629
Ti     -0.00570777     2.86136374     1.21098698    -0.10152390    -0.01859217    -0.11331267
Ti      3.80244547     0.95281049     8.49613517     0.03224550     0.01817822     0.04887618
Ti      5.70398762     2.85439144     3.64241695     0.03294561     0.01827798     0.04842083
Ti      3.80314011    -2.85461689     8.49796533     0.04223064    -0.01697623    -0.02264731
Ti      5.70474183    -0.95306327     3.64431262     0.04147885    -0.01707136    -0.02360351
Ti      0.00148992     0.95224953     8.41689096    -0.04018044     0.03717097    -0.19201957
Ti      1.90309323     2.85374564     3.56317867    -0.04085433     0.03724681    -0.19248005
Ti      0.00301745    -2.85302958     8.53378407    -0.03071441    -0.01452314    -0.05044943
Ti      1.90455763    -0.95139199     3.68014586    -0.02999733    -0.01437196    -0.05149587
O       1.89924669    -0.95100607     5.63019178    -0.02290905    -0.02201534     0.17799625
O       3.80082974     0.95054046     0.77648750    -0.02291677    -0.01801675     0.17757433
O      -1.90159633     2.85094806     5.64750077    -0.00115828     0.02191095    -0.06924395
O      -0.00002130     4.75251524     0.79380401    -0.00112846     0.02226036    -0.06914213
O      -1.90147271    -0.94910786     5.65401302     0.00450303    -0.01396958     0.04167168
O       0.00008850     0.95246581     0.80030555     0.00453800    -0.01418324     0.04175345
O       3.80594725     2.85343996     8.91986300     0.04220390    -0.00313803     0.03574092
O       5.70751689     4.75500732     4.06615179     0.04228258    -0.00345634     0.03647163
O       3.79683956    -0.95204594     8.90771452    -0.05151670    -0.00037332    -0.07987366
O       5.69840785     0.94952751     4.05398254    -0.05148199    -0.00003214    -0.07890487
O      -0.00238036     2.76918134     8.97116049    -0.04029383     0.06896755     0.06227446
O       1.89919130     4.67061893     4.11750151    -0.04033600     0.06904906     0.06418170
O       0.00695083    -0.86645802     8.95866100     0.05367154    -0.08401880    -0.04858667
O       1.90852656     1.03499020     4.10483252     0.05364532    -0.08288108    -0.04738262
O       1.90761041     0.97663093     8.07840854     0.01982733     0.00631335    -0.06685488
O       3.80918149     2.87825301     3.22462140     0.01968206     0.00609146    -0.06566523
O       1.88551728    -2.87731009     8.09194493     0.00959793     0.00207102     0.12855675
O       3.78709034    -0.97578699     3.23824236     0.00943878     0.00215716     0.13003565
O      -1.91034670     0.94591869     8.06170190    -0.02744165    -0.03009812    -0.17644793
O      -0.00876908     2.84753539     3.20793674    -0.02724445    -0.03040819    -0.17519195
O      -1.88648867    -2.84787701     8.07586234    -0.00824013     0.02650423     0.01696826
O       0.01507268    -0.94635332     3.22215794    -0.00798713     0.02643943     0.01741075
O       3.78301741     4.70477839     6.47463312     0.03865347    -0.13201128     0.11601979
O       5.68454380     6.60635892     1.62093312     0.04049386    -0.13192592     0.11635300
O       3.78222722     1.00007936     6.46597941     0.05904258     0.14637939    -0.03213854
O       5.68383843     2.90166154     1.61226169     0.05808818     0.14615801    -0.03183567
O       0.01870049     4.70390786     6.47164925    -0.05442076    -0.14824086     0.04487322
O       1.92031410     6.60547047     1.61794735    -0.05628353    -0.14817556     0.04517584
O       0.01805394     1.00153590     6.43349202    -0.02766020     0.14856997     0.06081895
O       1.91959299     2.90313206     1.57975884    -0.02669577     0.14812799     0.06159517
