# total energy = -4855.37418397 eV

CRYSTAL
PRIMVEC
        5.47653342     0.00000000     0.00000000
       -0.00000677     1.82551114     0.00000000
       -2.73830157    -0.91287436     6.21268891
PRIMCOORD
6 1
Ti     -0.00023438     1.36917689     1.55317185    -0.07702334    -0.04670925   142.23909107
Ti      2.73845931    -0.45654016     4.65951615     0.07702334     0.04670925  -142.23909107
O       0.00005782     0.45635800     1.01199609     0.07488546     0.04548077  -137.52151560
O       2.73816696     0.45627869     5.20069196    -0.07488546    -0.04548077   137.52151560
O      -0.00002512    -0.45643466     4.11834040    -0.00077776    -0.00048362    -0.32039891
O       2.73824980     1.36907130     2.09434765     0.00077776     0.00048362     0.32039891
