# total energy = -19960.26222223 eV

CRYSTAL
PRIMVEC
        7.60600008     0.00000000     0.00000000
        0.00000000     7.60600008     0.00000000
       -1.89786986    -1.89786986     4.85670466
PRIMCOORD
24 1
Ti      3.86447800     6.47121800     1.22790601     0.66477825     0.76742161     0.36351170
Ti      3.84520399     2.73530001     1.27427199     0.69239011    -0.38791508    -0.56230664
Ti      0.04102902     6.76797499     1.20573200    -0.61464995     0.83597522    -1.47759271
Ti     -0.01032499     2.99821098     1.28128597    -0.89359186    -1.86346581    -1.34379656
Ti      5.68221424     2.91031522     3.68201679    -2.45320639     0.01009801    -0.94588992
Ti      5.79089222    -0.81918575     3.63355881    -2.66364381     0.00670493    -0.27700253
Ti      1.72052421     2.77141323     3.61817880     2.63059664    -0.13896715     1.43266061
Ti      1.82906121    -1.02125378     3.56453383     3.22954125     0.01722126     1.81946959
O       4.00789599     4.62910299     0.89898901    -0.62949576    -0.81290702    -0.71033642
O       3.90315202     0.71248801     0.66728500    -0.31218629     3.02346649    -0.07787694
O      -0.02438798     4.76943598     0.73380602     0.49201574     0.47487882     1.55800450
O      -0.00540099     1.04463299     0.69651701     0.67606874     0.39027098     0.91605354
O       5.64146225     4.90001221     4.09708083     0.62527169    -1.09810237    -0.43852289
O       5.43748722     1.05198522     3.97432679     1.15542102    -0.54988332     1.13445521
O       1.87801625     4.62561523     4.10081581    -0.60552973    -0.35575339    -1.68022580
O       1.86258925     0.90621922     4.06978279    -0.26807334    -0.10731454     0.20043993
O       3.80148924     2.89408721     3.14598383     0.20494219     0.13596564     0.84589145
O       3.78224021    -0.86821879     3.20294384     0.26641807    -0.56145869    -0.21705544
O      -0.10114376     2.82279825     3.23727580     1.11180713     0.42888202     0.12748460
O       0.02088223    -0.69985379     3.18034183    -0.08130705    -0.45924162    -0.39696691
O       5.74191602     6.65964600     1.52864702     1.77587318    -0.06260947     1.10480858
O       5.73523103     2.66419203     1.72127500     0.43920912     0.56705161    -0.99456375
O       2.04920001     6.66592501     1.47178698    -3.66565759    -0.53744715     1.02435539
O       1.93196698     2.73219898     1.76031199    -1.77699161     0.27712903    -1.40499861
