# total energy = -19514.91407272 eV

CRYSTAL
PRIMVEC
        5.93400000     0.00000000     0.00000000
        0.00000000     9.29699974     0.00000000
        0.00000000     0.00000000     4.64899994
PRIMCOORD
23 1
Ti      4.70092001     7.02596001     2.17745802    -3.79606270     0.13483127    -0.04168120
Ti      4.49228902     2.21439898     2.24633700     1.09383896     1.43611669     1.84495361
Ti      1.39773900     6.86895698     2.47905503     1.70943045     0.32189324    -1.00198216
Ti      1.59474301     2.46527398     2.24732598    -1.87811545    -0.50042222     0.02638956
Ti      2.83581500     4.53259799     0.07611601     1.95384218    -0.46508805    -1.15742031
Ti      3.02191802     0.15705700     4.52241799     0.32823127     0.30136451     0.19493417
Ti      5.88752501     4.64893401     0.09930498    -1.73513918    -0.79636273    -0.95647696
Ti      0.10508698     0.06499202     4.49444399    -1.29178236     1.54640343     0.69345738
O       4.24752200     5.47491302     0.92758200     0.88661312     2.22456787     0.28347606
O       4.39028000     0.98162999     0.95187202    -0.43732733    -2.30879622    -1.55231079
O       1.44697100     5.37235699     1.12668700    -0.17645925     1.54156589     0.87398642
O       1.39612601     1.04244600     0.86621299     1.08096570    -0.31154017     0.40422050
O       4.42443897     8.59042799     3.41584100    -0.20454830    -0.61983407     2.60558185
O       4.39892401     3.76329302     3.78543702    -0.96879897    -0.10068212    -0.26910770
O       1.52390798     8.55003198     3.80851502     0.53372805    -2.67223387    -0.44686972
O       1.24471898     3.51670599     4.07434901     1.67758321     0.42823205    -2.80607166
O       2.89738001     1.56983998     3.36877502    -0.04819226    -0.20607965    -0.87662618
O       5.67680801     5.84147198     3.15022201     0.76507137     0.88561913     1.09451311
O       5.92743302     1.31831600     3.13131700     0.58390623     0.46821631     0.52356910
O       2.81862701     7.66713101     1.76304402     1.22686198    -0.58631767    -0.80443883
O       3.11461098     3.35856899     1.40522902    -1.50559538    -2.23806206     1.99098666
O       0.16444897     7.95758301     1.59663497     0.01167513     0.04922302    -1.89372822
O       5.85623100     3.04575602     1.32267102     0.19027302     1.46738517     1.27064582
