# total energy = -4990.20894489 eV

CRYSTAL
PRIMVEC
        4.01327194     0.00000000     0.00000000
       -0.00000810     3.63105597     0.00000000
       -2.00666428    -1.81556443     4.89015682
PRIMCOORD
6 1
Ti     -0.00017543     2.72342841     1.22253896    -0.00081607    -0.00231991     2.38679812
Ti      2.00677466    -0.90793677     3.66761727     0.00081607     0.00231991    -2.38679812
O       0.00004077     0.90775715     0.79656650     0.00019849     0.00090554    -0.22836238
O       2.00655830     0.90773438     4.09358983    -0.00019849    -0.00090554     0.22836238
O      -0.00002058    -0.90774446     3.24164480    -0.00109041    -0.00033270    -0.27143326
O       2.00661965     2.72323594     1.64851153     0.00109041     0.00033270     0.27143326
