# total energy = -39040.38437513 eV

CRYSTAL
PRIMVEC
        7.60629642     0.00000000     0.00000000
       -0.00001693     7.60629642     0.00000000
       -3.80320786    -3.80321633     9.70732590
PRIMCOORD
46 1
Ti      1.92331384     4.75384874     6.18655045     0.00494243    -0.00017972    -0.01222046
Ti      3.80355874     6.62421454     1.17603185    -0.00801593    -0.00446806     0.00173935
Ti      1.81563026     0.95063812     5.94285756    -0.00807352    -0.00018281    -0.02091825
Ti      3.80362199     2.88374055     1.17601891    -0.00792054     0.00463750     0.00177355
Ti     -1.91689459     4.75403684     6.09872721     0.00313778     0.00008999    -0.00542503
Ti     -0.00358647     6.67141318     1.25543219     0.00838180     0.01879503    -0.00839954
Ti     -1.82627544     0.95088479     6.01777501     0.03129445    -0.00005502     0.01617816
Ti     -0.00353929     2.83653695     1.25547367     0.00826121    -0.01877652    -0.00855381
Ti      3.80440926     0.95075843     8.63868640    -0.03251727     0.00006325     0.03414581
Ti      5.67728015     2.87589974     3.64002234     0.00539675    -0.00164782    -0.02284297
Ti      3.82017816    -2.85238346     8.55049983     0.00031316     0.00000206    -0.01500291
Ti      5.67729136    -0.97452890     3.64002881     0.00534815     0.00174218    -0.02301987
Ti      0.03795521     0.95071633     8.38889880     0.01366773     0.00000463     0.03768699
Ti      1.91645027     2.81153815     3.60380645    -0.00003805    -0.00560784    -0.01307304
Ti     -0.01405329    -2.85246902     8.51287094    -0.00244203    -0.00005476     0.01574236
Ti      1.91642967    -0.91049197     3.60378288    -0.00001080     0.00576184    -0.01294268
O       1.99929879     2.90689812     5.60313016    -0.00699726    -0.00424721    -0.00008356
O       3.85334844     4.75396154     0.72007186     0.01067420     0.00004782    -0.00301051
O       1.99930007    -1.00549098     5.60328199    -0.00698569     0.00390602    -0.00025454
O       3.77205954     0.95080010     0.78075683    -0.01347773     0.00003548     0.01686876
O      -2.04261449     2.82806180     5.67469494    -0.00803856    -0.00550910    -0.00376821
O      -0.04975646     4.75394543     0.84596345    -0.00359158     0.00004962     0.00379983
O      -2.04259253    -0.92646939     5.67467706    -0.00807995     0.00541269    -0.00376924
O       0.02785173     0.95081679     0.87495140     0.01365693     0.00000077     0.01086909
O       3.79669875     2.86659719     8.97226638     0.00354684     0.00361369    -0.00820311
O       5.74768782     4.75390074     4.11662599     0.00116702     0.00009899    -0.00054842
O       3.79669692    -0.96507556     8.97226684     0.00353424    -0.00359672    -0.00817457
O       5.64480732     0.95078700     4.02407771    -0.01168155    -0.00003651     0.00055870
O       0.01464819     2.82851280     8.86068242    -0.00238650     0.00250580     0.00891890
O       0.01470868    -0.92700159     8.86068331    -0.00239575    -0.00237082     0.00886491
O       1.97634455     0.95058797     3.99384339     0.01403849    -0.00003188     0.00977637
O       2.02979883     0.95084214     7.94936514     0.00395076    -0.00009359    -0.00947118
O       3.78451182     3.02500813     3.21462467    -0.00929326    -0.00159306     0.00375613
O       1.90213050    -2.85242314     8.13334203    -0.00035636     0.00005734    -0.01587862
O       3.78453046    -1.12352208     3.21459416    -0.00940998     0.00143853     0.00384380
O      -2.00811078     0.95083491     7.99282757    -0.00561478     0.00001697     0.01137688
O       0.01683299     2.92608263     3.27322998     0.01223640    -0.01536852     0.01932030
O      -1.90234146    -2.85234544     8.10947454    -0.01015715     0.00008176    -0.01198700
O       0.01680858    -1.02466178     3.27320762     0.01235210     0.01533201     0.01937250
O       3.80926204     4.75393417     6.55235976    -0.01394310    -0.00007533    -0.01759458
O       5.69350757     6.68104132     1.66487446     0.00581892     0.01424597    -0.00335323
O       5.69351866     2.82682016     1.66487445     0.00588140    -0.01405263    -0.00330181
O      -0.01248655     4.75390263     6.48725800     0.01234567    -0.00001980    -0.01886985
O       1.90705217     6.58912307     1.61532399    -0.00743820    -0.00686845     0.01466815
O       0.00676867     0.95073810     6.39675612     0.00640822     0.00003934    -0.00319665
O       1.90708349     2.91875486     1.61535169    -0.00748911     0.00685739     0.01460310
