# total energy = -19901.65095698 eV

CRYSTAL
PRIMVEC
        6.73754350     0.00000000     0.00000000
        3.07139506     6.47971205     0.00000000
        0.00000000     0.00000000    12.39193474
PRIMCOORD
24 1
Ti      4.26214126     3.83987133     4.59731938    -0.23274431    -2.04456513     0.38713732
Ti      5.54679707     2.63984064     7.79461543     0.23274431     2.04456513    -0.38713732
Ti      7.06198614     2.63984283     1.59859853    -0.13791325    -1.32599964     0.32885244
Ti      2.74695231     3.83986938    10.79333648     0.13791325     1.32599964    -0.32885244
Ti      2.72644389     0.60001540     1.59864820    -0.23274431    -2.04456513    -0.38713732
Ti      7.08249449     5.87969676    10.79328682     0.23274431     2.04456513     0.38713732
Ti      1.21125477     0.60001301     7.79456577     0.13791325     1.32599964     0.32885244
Ti      8.59768367     5.87969913     4.59736911    -0.13791325    -1.32599964    -0.32885244
O       3.21396540     2.28161674     6.32350945     1.76965651     1.97265572    -0.81280212
O       6.59497293     4.19809523     6.06842543    -1.76965651    -1.97265572     0.81280212
O       2.31783886     2.28164291     0.12758193    -0.03696245    -1.00725549     1.73009904
O       7.49109956     4.19806917    12.26435261     0.03696245     1.00725549    -1.73009904
O       5.05927553     0.95823917     0.12754168    -1.76965651    -1.97265572    -0.81280212
O       4.74966282     5.52147286    12.26439280     1.76965651     1.97265572     0.81280212
O       5.95540215     0.95821305     6.32354964     0.03696245     1.00725549     1.73009904
O       3.85353613     5.52149900     6.06838517    -0.03696245    -1.00725549    -1.73009904
O       2.11298707     3.94132823     3.34737074     0.63670642     2.98924663     2.80308610
O       7.69595119     2.53838375     9.04456414    -0.63670642    -2.98924663    -2.80308610
O       4.81674539     2.53832345     2.84863609     0.50611542     2.16387259     1.86802644
O       4.99219294     3.94138851     9.54329852    -0.50611542    -2.16387259    -1.86802644
O       0.57728966     0.70147210     2.84859650     0.63670642     2.98924663    -2.80308610
O       9.23164861     5.77823988     9.54333811    -0.63670642    -2.98924663     2.80308610
O       3.45649552     0.70153239     9.04460359    -0.50611542    -2.16387259     1.86802644
O       6.35244281     5.77817958     3.34733115     0.50611542     2.16387259    -1.86802644
