# total energy = -19961.45376002 eV

CRYSTAL
PRIMVEC
        7.60600008     0.00000000     0.00000000
        0.00000000     7.60600008     0.00000000
       -1.89786986    -1.89786986     4.85670466
PRIMCOORD
24 1
Ti      3.77485601     6.68823602     1.16801998     0.61879483    -1.11338578     0.27244756
Ti      3.82713899     2.83875400     1.19982099     0.29973829     1.44979959     0.11246884
Ti     -0.00909201     6.60647702     1.20076202    -0.51092698     0.50147792    -0.33162024
Ti      0.02685199     2.82197099     1.20458898    -0.54962775    -0.16830345     1.64360582
Ti      5.72000824     2.71643722     3.66320581     0.34459197     2.51986844    -0.12651529
Ti      5.70370921    -0.95423575     3.66529283    -0.29065278    -2.11721605    -0.23605821
Ti      1.92210121     2.86531521     3.56276283    -0.39227670     0.74319513     1.01512538
Ti      1.84533024    -0.89845878     3.62130682     0.15758091    -0.47148624    -0.52151453
O       3.78594498     4.80701201     0.77564002     0.21101231    -0.06107838    -0.09814881
O       3.74663801     1.03723001     0.78409701     0.38226713    -0.63885484    -0.20025533
O      -0.06468599     4.82796499     0.83694499     0.17472478    -2.81143216    -0.46768307
O      -0.12574299     0.87591001     0.86773501     0.42968292     1.38742177    -0.45749378
O       5.70605023     4.66536724     4.06042482     0.02556372     1.03798610     0.23537224
O       5.86907223     0.88275222     4.19667283    -0.04782948     0.65028314    -1.33784677
O       1.94291920     4.78375424     3.99681883     0.02539017     0.40279997     0.69292284
O       1.67636024     1.03707025     4.01790580     0.88294338    -0.80798952     0.32461964
O       3.82826524     2.87299722     3.28529684     0.01426577    -0.74683504    -0.78404534
O       3.87178822    -0.93720175     3.20748079    -1.38603518     0.47360483     0.16201581
O      -0.03814077     2.93800024     3.17745184     1.13268526    -0.34517741     0.44799767
O       0.02682622    -1.09010577     3.27971179    -0.28606773     0.36478671    -0.08683081
O       5.68930902     6.67670001     1.69784499    -0.06326896     0.17511816    -0.25160465
O       5.78045102     2.87873699     1.67617301    -1.68629591    -0.33664906    -0.64616474
O       1.86300597     6.70904401     1.62347299     1.07403761     0.17376524     0.37197809
O       1.96144501     2.93247097     1.60702701    -0.56029784    -0.26169855     0.26722719
