# total energy = -19073.70193188 eV

CRYSTAL
PRIMVEC
        7.60600008     0.00000000     0.00000000
        0.00000000     7.60600008     0.00000000
       -1.89786986    -1.89786986     4.85670466
PRIMCOORD
22 1
Ti      3.86715098     6.69892699     1.25202602    -0.32611602    -1.63957175    -0.89645402
Ti      3.69453199     2.69610300     1.27316802     2.89036017     1.74822559     1.92286603
Ti      0.30919102     6.79171102     1.07185799    -1.66280399    -1.00757199    -0.80270822
Ti      0.16828101     2.83080602     0.95330398    -2.59751347     0.93097469     0.87810070
Ti      5.80636123     2.91324824     3.41017780    -1.17247336     0.52297980     0.19758421
Ti      5.95625524    -0.92414779     3.42967883    -0.04524166    -0.79264826     2.07082922
Ti      1.84153022     2.72685524     3.83769581     1.06677629     0.81731955    -0.13699177
Ti      1.07633425    -0.92600780     4.00864779     2.95019773    -0.94635555    -2.28317439
O       3.74674998     4.64170000     0.94042100    -0.25525716     1.24535747    -0.15180750
O       4.12316302     0.83990399     0.71696802    -1.13906417     0.20245079     1.62635756
O       0.11162698     4.80981501     0.72398100     0.87981254     0.09070881    -0.55768714
O       7.30300197     1.02885001     0.69679600     1.56725148    -0.28571292     0.18332487
O       5.58827522     4.84566322     3.96299583     0.94598608    -0.30172215    -0.76648188
O       5.77951321     0.89704725     3.88202483     0.60596116     1.07378770    -0.31930851
O       1.71011423     4.64418422     4.20601180    -0.46749358     1.26568951     0.40653193
O       1.91774724     0.87925224     4.26216481    -1.69305226    -0.82887794    -1.61034576
O       3.82392223     2.71595821     3.43545580    -0.96976365     0.12896787    -1.46745047
O       0.06008522     2.91109623     3.09670881    -0.33268596    -0.50770667     0.53177195
O       5.99113601     6.72121699     1.64614602    -1.57104283    -0.61992560    -0.60258453
O       5.65550100     2.95042601     1.44153101     0.45493965    -0.17721926     2.06622257
O       1.90824899    -0.82428601     2.17578598     0.14129271    -0.08240157    -0.22495953
O       1.88345598     2.77117902     1.62222398     0.72993029    -0.83674861    -0.06363534
