# total energy = -39038.83651881 eV

CRYSTAL
PRIMVEC
        5.93188753     0.00000000     0.00000000
        0.00000000     9.29428401    -0.00002646
        0.00000000    -0.00002646     9.29428401
PRIMCOORD
46 1
Ti      4.44891576     6.97069300     6.97069300     0.00000000     0.00000000     0.00000000
Ti      4.44891576     6.97070623     2.32355100     0.00000000    -0.00000000    -0.00000000
Ti      4.44891576     2.32355100     6.97070623    -0.00000000     0.00000000     0.00000000
Ti      4.44891576     2.32356423     2.32356423     0.00000000     0.00000000     0.00000000
Ti      1.48297199     6.97069300     6.97069300     0.00000000     0.00000000     0.00000000
Ti      1.48297199     6.97070623     2.32355100     0.00000000     0.00000000     0.00000000
Ti      1.48297199     2.32355100     6.97070623    -0.00000000     0.00000000     0.00000000
Ti      1.48297199     2.32356423     2.32356423     0.00000000    -0.00000000    -0.00000000
Ti      2.96594376     4.63920365     4.63968524     0.00000000     0.09230212     0.06759561
Ti      2.96594376     4.77579929    -0.12867051    -0.00000000    -0.06354895     0.06354895
Ti      2.96594376     0.03042361     4.61670516    -0.00000000     0.02364927    -0.02364927
Ti      2.96594376     0.00744354     0.00792512    -0.00000000    -0.06759561    -0.09230212
Ti      0.00000000     4.63968524     4.63920365    -0.00000000     0.06759561     0.09230212
Ti      0.00000000     4.61670516     0.03042361    -0.00000000    -0.02364927     0.02364927
Ti      0.00000000    -0.12867051     4.77579929    -0.00000000     0.06354895    -0.06354895
Ti      0.00000000     0.00792512     0.00744354     0.00000000    -0.09230212    -0.06759561
O       4.44891576     5.55408404     5.55408404     0.00000000    -0.00922255    -0.00922255
O       4.41844412     5.50033445     0.94383675    -0.03451964    -0.03844186     0.02800575
O       4.47938739     0.94383675     5.50033445     0.03451964     0.02800575    -0.03844186
O       4.44891576     0.93978511     0.93978511    -0.00000000     0.03977138     0.03977138
O       1.48297199     5.55408404     5.55408404     0.00000000    -0.00922255    -0.00922255
O       1.51344363     5.50033445     0.94383675     0.03451964    -0.03844186     0.02800575
O       1.45250036     0.94383675     5.50033445    -0.03451964     0.02800575    -0.03844186
O       1.48297199     0.93978511     0.93978511     0.00000000     0.03977138     0.03977138
O       4.44891576     8.38730202     8.38730202     0.00000000     0.00922255     0.00922255
O       4.47938739     8.44107807     3.70326531     0.03451964     0.03844186    -0.02800575
O       4.41844412     3.70326531     8.44107807    -0.03451964    -0.02800575     0.03844186
O       4.44891576     3.70734341     3.70734341     0.00000000    -0.03977138    -0.03977138
O       1.48297199     8.38730202     8.38730202     0.00000000     0.00922255     0.00922255
O       1.45250036     8.44107807     3.70326531    -0.03451964     0.03844186    -0.02800575
O       1.51344363     3.70326531     8.44107807     0.03451964    -0.02800575     0.03844186
O       1.48297199     3.70734341     3.70734341    -0.00000000    -0.03977138    -0.03977138
O       2.96594376     6.07388035     7.86750567     0.00000000    -0.09303206     0.09303206
O       2.96594376     6.07315479     3.24470645     0.00000000     0.04951432     0.05285084
O       2.96594376     1.40239555     7.86825768    -0.00000000    -0.05285084    -0.04951432
O       2.96594376     1.45109311     3.19603534     0.00000000     0.03502435    -0.03502435
O       0.00000000     6.03692778     7.90445824     0.00000000     0.00778196    -0.00778196
O       0.00000000     6.06306677     3.23747291     0.00000000     0.02084317     0.02225291
O       0.00000000     1.40962909     7.87834571    -0.00000000    -0.02225291    -0.02084317
O       2.96594376     7.90445824     6.03692778     0.00000000    -0.00778196     0.00778196
O       2.96594376     7.87834571     1.40962909     0.00000000    -0.02084317    -0.02225291
O       2.96594376     3.23747291     6.06306677    -0.00000000     0.02225291     0.02084317
O       0.00000000     7.86750567     6.07388035     0.00000000     0.09303206    -0.09303206
O       0.00000000     7.86825768     1.40239555     0.00000000    -0.04951432    -0.05285084
O       0.00000000     3.24470645     6.07315479    -0.00000000     0.05285084     0.04951432
O       0.00000000     3.19603534     1.45109311     0.00000000    -0.03502435     0.03502435
