# total energy = -4988.26445458 eV

CRYSTAL
PRIMVEC
        4.09979388     0.00000000     0.00000000
       -0.00000764     3.35437662     0.00000000
       -2.04992429    -1.67722664     4.80463584
PRIMCOORD
6 1
Ti     -0.00017794     2.51590748     1.20115909    -0.00103847    -0.00451692     5.92885965
Ti      2.05003989    -0.83875771     3.60347691     0.00103847     0.00451692    -5.92885965
O       0.00004229     0.83858709     0.78263598     0.00128761     0.00443644    -1.11058868
O       2.04981955     0.83856257     4.02200007    -0.00128761    -0.00443644     1.11058868
O      -0.00001983    -0.83857946     3.18495379    -0.00122359    -0.00031830    -0.05855278
O       2.04988157     2.51572913     1.61968220     0.00122359     0.00031830     0.05855278
