# total energy = -19913.54343655 eV

CRYSTAL
PRIMVEC
        6.48786370     0.00000000     0.00000000
        1.02999886     6.82779627     0.00000000
        0.00000000     0.00000000    11.64482585
PRIMCOORD
24 1
Ti      2.96191489     4.04614568     4.32014737    -0.17094217    -1.51729596     0.70944322
Ti      4.55594759     2.78165040     7.32467874     0.17094217     1.51729596    -0.70944322
Ti      6.01498617     2.78165270     1.50221912     0.21013557     0.11897681    -0.45307817
Ti      1.50287632     4.04614364    10.14260713    -0.21013557    -0.11897681     0.45307817
Ti      2.44691560     0.63224767     1.50226582    -0.17094217    -1.51729596    -0.70944322
Ti      5.07094689     6.19554861    10.14256043     0.17094217     1.51729596     0.70944322
Ti      0.98787700     0.63224516     7.32463204    -0.21013557    -0.11897681    -0.45307817
Ti      6.52998548     6.19555111     4.32019407     0.21013557     0.11897681     0.45307817
O       2.41612990     2.40418305     5.94226555     1.68676334     1.77942645    -0.39352651
O       5.10173257     4.42361302     5.70256050    -1.68676334    -1.77942645     0.39352651
O       1.55320421     2.40421065     0.11989000    -1.06105250     0.67123969     0.52512513
O       5.96465833     4.42358548    11.52493578     1.06105250    -0.67123969    -0.52512513
O       4.58673327     1.00971481     0.11985223    -1.68676334    -1.77942645    -0.39352651
O       2.93112920     5.81808126    11.52497355     1.68676334     1.77942645     0.39352651
O       5.44965903     1.00968727     5.94230339     1.06105250    -0.67123969     0.52512513
O       2.06820338     5.81810887     5.70252273    -1.06105250     0.67123969    -0.52512513
O       0.86222277     4.15305273     3.14555803     0.48703448     0.82305465     1.15163250
O       6.65563970     2.67474328     8.49926808    -0.48703448    -0.82305465    -1.15163250
O       3.88314932     2.67467978     2.67689207     0.56416966     1.20028113     0.41256682
O       3.63471315     4.15311623     8.96793385    -0.56416966    -1.20028113    -0.41256682
O       0.34722347     0.73915452     2.67685483     0.48703448     0.82305465    -1.15163250
O       7.17063900     6.08864149     8.96797102    -0.48703448    -0.82305465     1.15163250
O       3.11971385     0.73921802     8.49930519    -0.56416966    -1.20028113     0.41256682
O       4.39814862     6.08857799     3.14552086     0.56416966     1.20028113    -0.41256682
