# total energy = -19518.28704623 eV

CRYSTAL
PRIMVEC
        5.93400000     0.00000000     0.00000000
        0.00000000     9.29699974     0.00000000
        0.00000000     0.00000000     4.64899994
PRIMCOORD
23 1
Ti      4.45573002     7.08345501     2.23630602     0.66556347    -0.68003853     0.39338587
Ti      4.47776602     2.28647599     2.34399899    -0.69903436     0.41494844    -0.06899352
Ti      1.37198198     7.01530799     2.17123601    -0.80675874     0.16784168     1.41127982
Ti      1.47229901     2.29332402     2.35401801     0.61174846    -0.15517976    -0.05357718
Ti      2.97984901     4.56044700     0.17142099     0.69032860     0.02641809     1.02476934
Ti      2.96653099     9.15144600     4.63198700    -0.68700185     0.65004634    -1.24669342
Ti      0.01318397     4.59741098     4.62660897    -0.40099711     0.87356656    -0.45213689
Ti      5.90450901     0.09787202     0.02405402     0.75959492    -0.42669787    -0.48640302
O       4.48689501     5.62273101     0.96068701    -0.25924263    -0.27623660    -0.33320687
O       4.49668998     0.93071801     0.88511700    -0.61073056     0.16143937     0.13663310
O       1.45446399     5.66434398     0.93998099     0.73132485    -0.92816164    -0.85332297
O       1.46777201     0.86482099     0.89495102     0.35489567     0.48072011     0.28901061
O       4.49273300     8.31757399     3.71356798    -0.48338789     0.28560442     0.38303178
O       4.40042502     3.72438902     3.78647299     0.44535817     0.54322571    -0.01384642
O       1.51837400     8.39505999     3.61465300     0.19133720     0.29117548     0.87881316
O       1.68533000     3.78272599     3.81197499    -1.66172567    -0.46069275    -1.06473355
O       3.06090198     1.41514702     3.17503498    -0.60609486    -0.42556144     0.32665004
O       0.03274898     6.01098598     3.27439700    -0.00667202     0.54423564    -0.70596837
O       5.89615198     1.46865399     3.28003200     0.58422813    -0.00428680    -0.14410704
O       2.90319800     7.93851898     1.39309599     0.66945715    -0.87175496     0.61729433
O       2.91483900     3.29667700     1.47157901     0.42950011    -0.34732248     0.24939684
O       5.87315600     7.92652200     1.41570001     0.19981207     0.22242827    -0.44062425
O       0.09010301     3.25836298     1.42740102    -0.11150416    -0.08571675     0.15334836
