# total energy = -19070.27634351 eV

CRYSTAL
PRIMVEC
        5.17600016     0.00000000     0.00000000
        0.00000000     5.50899976     0.00000000
        0.00000000     0.00000000     9.26300011
PRIMCOORD
22 1
Ti      1.79181698     3.24185398     3.15968000    -1.63642652     2.30810767    -0.12729768
Ti      3.39788797     2.62402800     5.90361602     0.51455969    -4.45010814    -0.08986755
Ti      4.37186199     2.10694499     1.40423301     2.70236052     1.47170359     0.88238596
Ti      0.99947999     2.54845498     7.92047801    -1.18167251     0.61885576    -3.92979869
Ti      1.83838801     0.54118799     1.12084499     0.25465346    -1.29478258     0.09111659
Ti      3.37826301     5.36512599     7.89531298     0.04650562     2.23860070    -0.65650984
Ti      0.80835000     5.24942901     6.50461702     0.83291535     1.16823001    -2.30641023
Ti      4.42837298     5.06540301     3.64776902     1.88446814    -0.28936260     1.34717114
O       3.41240802     3.38859901     4.18513698     0.01162859     0.23377713     1.44460904
O       0.86467198     1.99137199     0.30020601    -0.97236047     0.98457835     0.95648081
O       4.80937399     4.25400998     7.64656300     1.42388954     0.04447830    -0.09143952
O       3.59869402     0.75486399     0.44019700     1.10102803    -2.01451587    -3.02782785
O       1.65873599     5.33117599     8.63224199    -0.89098939    -0.52642765    -0.32254475
O       4.74321498     0.71762198     5.26914700    -2.12513068    -0.86249384     0.14980024
O       0.96093800     4.60063600     4.46000403     0.21226676    -1.57677485     1.10552309
O       0.01418100     3.70772602     2.44079900     0.05291821    -0.38231701    -1.32639842
O       4.37052402     2.02503597     7.38645503     0.75501012    -1.86328275     0.61883236
O       2.67227902     2.03795801     1.94008001    -2.43743370     1.32984138     2.73629730
O       2.45396901     3.71745399     6.90279300    -2.54366298     3.27444327     1.57328021
O       5.05618099     1.06456201     2.69421701     1.01012561    -0.63515142    -0.56026647
O       1.94629498     1.35393100     6.25166399     0.48691827    -0.08192180     1.06149293
O       2.46326099     4.66793899     2.19301303     0.49842833     0.30452234     0.47137132
