# total energy = -19075.55691534 eV

CRYSTAL
PRIMVEC
        7.60600008     0.00000000     0.00000000
        0.00000000     7.60600008     0.00000000
       -1.89786986    -1.89786986     4.85670466
PRIMCOORD
22 1
Ti      3.83872300     6.60175999     1.17242501     0.57360999    -0.28788704     1.18254488
Ti      3.75228502     2.81582999     1.27204400     0.11456814     0.43409031    -0.47865885
Ti      0.11119702     6.79042602     1.00742098     0.02495951    -1.01310784     2.54780426
Ti     -0.00875598     2.88841803     1.06735898    -0.30635400     0.63068310     0.92425074
Ti      5.66337421     2.90562322     3.56826082     0.48364577    -0.63982774     0.08963666
Ti      6.03818124    -0.98987177     3.64688079     0.84293983     1.38440895     0.39177790
Ti      1.79338323     2.76334021     3.62905382    -0.38045502    -1.10318056     0.37865987
Ti      1.56757325    -1.06254775     3.80408581     0.14106851     1.09452134     0.39799586
O       3.33949702     4.61280898     0.78482098     1.07468347     1.61882731     0.05945858
O       3.91069301     0.94595302     0.85973099     0.02856085    -0.95160728     0.27567995
O       0.17597901     4.77579600     0.64490498    -0.13374112     0.85916426     0.67385785
O       7.26995099     0.97762401     0.71147199     0.51360813     0.25998876     0.63404353
O       5.57851921     4.83521424     4.07009183    -0.32740106    -0.68925825    -2.14457903
O       5.87433125     0.93614922     4.02486083    -0.15750147    -0.13337834    -1.13219290
O       2.13919623     4.65843724     4.23620983    -0.29834064     0.62221825    -1.84560924
O       1.94584121     0.85436720     4.09113679    -0.74260095     0.16486845     0.23837529
O       3.73891922     2.68994020     3.23625084     0.45790053     0.39869777    -0.10615035
O      -0.01783375     3.04907322     3.18777979     0.07793788    -0.26938281    -0.03268388
O       5.84863202     6.54905198     1.83479998    -1.05762625     0.02810860    -1.18169539
O       5.68385098     3.19127998     1.63699098    -0.53897721    -0.62565222    -0.28089750
O       2.21826198    -0.67711002     2.12262197    -0.94136298    -1.28337048    -1.28185095
O       1.78802299     2.71620602     1.57406101     0.55087834    -0.49892481     0.69023321
