# total energy = -19071.49822159 eV

CRYSTAL
PRIMVEC
        5.93400000     0.00000000     0.00000000
        0.00000000     9.29699974     0.00000000
        0.00000000     0.00000000     4.64899994
PRIMCOORD
22 1
Ti      4.39097899     7.14772798     2.37254599     1.86026042    -0.56173534     0.66186468
Ti      4.35991100     2.37194902     2.23064398     0.76809936    -0.30809772     0.02607537
Ti      1.52020802     7.21078898     2.54416198    -2.09327059     0.35251791     0.02281264
Ti      1.66448301     2.36782599     2.20839700    -0.88911840    -0.79239346    -1.04928122
Ti      3.00279800     4.51976602     4.49142398    -0.01293265     0.31837339     0.39742148
Ti      3.03830902     9.22332901     0.09285198    -1.45322841     1.09083951    -0.08595741
Ti      5.73533898     4.56204199     4.34195998     1.05269204     0.64440251     1.22472796
Ti      5.85145100     0.08091099     0.33117902     2.53631193    -0.11015638    -0.82969967
O       4.32946902     5.25776402     0.92701498     0.55396958     0.49334012    -0.87793255
O       4.61792099     0.55277501     1.49006000    -1.95181538     1.58823118    -0.68925825
O       1.63109198     0.60985598     1.24757400    -0.94906678     0.94388395    -0.75753366
O       4.49787899     8.40813199     3.85895101     0.34789790     0.92793076    -0.19208282
O       4.37948399     4.13067898     3.19698297    -0.82514804    -1.73350473     0.17774865
O       1.50923400     8.31458398     3.93559202     0.06114985     1.77891377    -0.14077361
O       1.58662897     3.77753699     3.32878102    -1.05037856     1.18276420     1.37592611
O       2.90724599     6.34496498     3.23419599     0.84474294    -3.26986748     1.96149867
O       3.06700402     1.41343900     3.29437000    -0.58956472    -0.07181814     1.05989628
O       5.83845700     6.29907801     3.37977598     1.20434168    -1.78682377    -0.20624832
O       2.99252201     7.69371301     1.37599198    -1.08745414     0.91065474    -1.74814562
O       3.07989499     2.75751497     0.96554401    -0.76717813     1.98547345    -0.30063663
O       0.01935699     8.00214302     1.42444303     0.50370552    -3.71724705     1.16999173
O       5.83877001     2.95648202     1.31978500     1.93598483     0.13431834    -1.20041406
