# total energy = -4977.72049901 eV

CRYSTAL
PRIMVEC
        2.79770433     0.00000000     0.00000000
        1.87756104     3.96113208     0.00000000
       -0.00001227    -0.00005890     4.50471803
PRIMCOORD
6 1
Ti      2.33762646     1.98053661     2.25235892     0.00000000     0.00000000     0.00000000
Ti      0.00000000     0.00000000     0.00000000     0.00000000     0.00000000     0.00000000
O       1.76475870     0.77195487     0.87790317   -10.17800720     4.20036471     5.88268236
O       2.91049416     3.18911836     3.62681467    10.17800720    -4.20036471    -5.88268236
O       0.57286262     1.20855797     3.13026302    10.17807894    -4.20198374     5.88455901
O       1.30468603     2.75251514     1.37445482   -10.17807894     4.20198374    -5.88455901
