# total energy = -19929.72961279 eV

CRYSTAL
PRIMVEC
        6.15049479     0.00000000     0.00000000
        0.97643892     6.47275086     0.00000000
        0.00000000     0.00000000    11.03929491
PRIMCOORD
24 1
Ti      2.80789531     3.83574610     4.09549971    -0.08028324    -1.56927674     0.76583036
Ti      4.31903831     2.63700458     6.94379545     0.08028324     1.56927674    -0.76583036
Ti      5.70220689     2.63700676     1.42410372     0.05784084     0.03558871    -0.36866856
Ti      1.42472676     3.83574417     9.61519156    -0.05784084    -0.03558871     0.36866856
Ti      2.31967599     0.59937079     1.42414799    -0.08028324    -1.56927674    -0.76583036
Ti      4.80725765     5.87338008     9.61514729     0.08028324     1.56927674     0.76583036
Ti      0.93650740     0.59936841     6.94375118    -0.05784084    -0.03558871    -0.36866856
Ti      6.19042624     5.87338245     4.09554398     0.05784084     0.03558871     0.36866856
O       2.29049115     2.27916554     5.63326774     1.66226252     1.77271047    -0.40470387
O       4.83644248     4.19358515     5.40602735    -1.66226252    -1.77271047     0.40470387
O       1.47243759     2.27919170     0.11365572    -1.00437740     0.60153295     0.56389173
O       5.65449610     4.19355904    10.92563912     1.00437740    -0.60153295    -0.56389173
O       4.34822314     0.95720964     0.11361991    -1.66226252    -1.77271047    -0.40470387
O       2.77871049     5.51554104    10.92567493     1.66226252     1.77271047     0.40470387
O       5.16627676     0.95718353     5.63330361     1.00437740    -0.60153295     0.56389173
O       1.96065680     5.51556721     5.40599154    -1.00437740     0.60153295    -0.56389173
O       0.81738719     3.93709399     2.98198901     0.44146989     0.80229941     1.09907553
O       6.30954643     2.53565663     8.05730614    -0.44146989    -0.80229941    -1.09907553
O       3.68122555     2.53559643     2.53769368     0.62140835     1.15114168     0.34604439
O       3.44570807     3.93715419     8.50160129    -0.62140835    -1.15114168    -0.34604439
O       0.32916785     0.70071848     2.53765838     0.44146989     0.80229941    -1.09907553
O       6.79776577     5.77203214     8.50163653    -0.44146989    -0.80229941     1.09907553
O       2.95748873     0.70077868     8.05734132    -0.62140835    -1.15114168     0.34604439
O       4.16944489     5.77197194     2.98195377     0.62140835     1.15114168    -0.34604439
