# total energy = -19932.64171150 eV

CRYSTAL
PRIMVEC
        6.38558484     0.00000000     0.00000000
        0.00003178     6.14893661     0.00000000
        0.00000000     0.00000000    10.91184371
PRIMCOORD
24 1
Ti      2.31448624     3.64385409     4.04821629     0.18468112    -0.80553746     0.66843822
Ti      4.07113038     2.50508240     6.86362780    -0.18468112     0.80553746    -0.66843822
Ti      5.50716738     2.50508452     1.40766217     0.18533444     0.80577760    -0.66888508
Ti      0.87844931     3.64385228     9.50418210    -0.18533444    -0.80577760     0.66888508
Ti      2.31447041     0.56938590     1.40770594     0.18468112    -0.80553746    -0.66843822
Ti      4.07114627     5.57955077     9.50413833    -0.18468112     0.80553746     0.66843822
Ti      0.87843342     0.56938366     6.86358408    -0.18533444    -0.80577760    -0.66888508
Ti      5.50718320     5.57955307     4.04826006     0.18533444     0.80577760     0.66888508
O       2.02108913     2.16514504     5.56823046     1.14438919     1.27693397    -0.36817774
O       4.36452755     3.98379145     5.34361362    -1.14438919    -1.27693397     0.36817774
O       1.17176309     2.16516990     0.11234355    -1.14411433     1.27713143    -0.36889816
O       5.21385365     3.98376665    10.79950028     1.14411433    -1.27713143     0.36889816
O       4.36451166     0.90932308     0.11230817    -1.14438919    -1.27693397    -0.36817774
O       2.02110502     5.23961341    10.79953566     1.14438919     1.27693397     0.36817774
O       5.21383776     0.90929828     5.56826590     1.14411433    -1.27713143    -0.36889816
O       1.17177879     5.23963827     5.34357824    -1.14411433     1.27713143     0.36889816
O       0.23202250     3.74013183     2.94756128    -0.13613431    -0.12888276     0.14501799
O       6.15359418     2.40880472     7.96428280     0.13613431     0.12888276    -0.14501799
O       3.42482058     2.40874749     2.50839545    -0.13590625     0.12904320    -0.14513394
O       2.96079604     3.74018906     8.40344851     0.13590625    -0.12904320     0.14513394
O       0.23200661     0.66566346     2.50836057    -0.13613431    -0.12888276    -0.14501799
O       6.15361000     5.48327309     8.40348333     0.13613431     0.12888276     0.14501799
O       2.96078021     0.66572070     7.96431762     0.13590625    -0.12904320    -0.14513394
O       3.42483647     5.48321579     2.94752647    -0.13590625     0.12904320     0.14513394
