# total energy = -19961.36959150 eV

CRYSTAL
PRIMVEC
        7.60600008     0.00000000     0.00000000
        0.00000000     7.60600008     0.00000000
       -1.89786986    -1.89786986     4.85670466
PRIMCOORD
24 1
Ti      3.78367401     6.63317200     1.25879700    -0.78858360    -0.05765804     0.11071971
Ti      3.80524598     2.88458001     1.24694899    -0.62566893     0.17258948    -1.50529404
Ti      0.00044297     6.59962301     1.18848300     0.64465859     0.43949837     0.51434861
Ti      0.01007897     2.88117602     1.16119698     0.54194041    -0.19788940     0.17694570
Ti      5.75079921     2.79953525     3.56000381     0.18815391     0.81629907     0.59927706
Ti      5.74513622    -0.97303176     3.66629382     0.31820910    -0.93771612    -0.13632765
Ti      1.88468822     2.86883423     3.59044981    -0.63139298    -0.24111660     0.64770535
Ti      1.90626023    -0.97377975     3.69446880    -0.37716118     0.27512202    -0.14331926
O       3.60758901     4.76303198     0.78493200     0.84443441    -0.80816796     0.03489117
O       3.62355498     0.96427102     0.84513602     0.80627974     0.39186583     0.08567459
O       0.03210799     4.78089499     0.67863098    -0.46611726    -1.42446213     0.73835014
O       0.04879602     0.96044602     0.79044000    -0.42594093     0.08037683    -0.04549749
O       5.88414822     4.65012820     4.12222680    -0.83675709     1.66252014    -0.65001034
O       5.75618523     0.89485820     3.98303482    -0.18000197     0.73534503     0.09654393
O       1.83399124     4.67609022     4.18710584     0.52671048     0.82583247    -0.76466050
O       1.76564821     0.92124123     3.98707583     0.83394996     0.84533738     0.51559328
O       3.78026421     2.95609323     3.09189382     0.51147823    -0.54372861     1.51719028
O       3.79766525    -1.11168980     3.26398782     0.14383605     0.10996458     0.39707412
O      -0.04013677     2.93793023     3.15883379     0.90899021    -0.65445784     0.04835218
O       0.08296621    -1.10506778     3.28397781    -2.08118948     0.08364804    -0.48386894
O       5.64363399     6.66696701     1.68491100     1.13090734     0.00990749    -0.28345497
O       5.77674498     3.00033399     1.62765000    -1.41891497    -0.37611834    -1.03180568
O       1.83531101     6.74455900     1.69841100     0.65024894    -0.39414409    -0.14318427
O       1.86538801     3.09106503     1.66046402    -0.21806897    -0.81284762    -0.29524220
