# total energy = -4986.72579557 eV

CRYSTAL
PRIMVEC
        3.27000394     0.00000000     0.00000000
        1.50325807     4.89811735     0.00000000
       -0.00001001    -0.00006715     5.18354984
PRIMCOORD
6 1
Ti      2.38662607     2.44902515     2.59177492     0.00000000     0.00000000     0.00000000
Ti      0.00000000     0.00000000     0.00000000     0.00000000     0.00000000     0.00000000
O       1.92796289     0.95455794     1.01019750     0.63993213    -0.17027188    -0.53175138
O       2.84528930     3.94349235     4.17335228    -0.63993213     0.17027188     0.53175138
O       0.45865907     1.49444003     3.60197357    -0.63989485     0.17030942    -0.53094483
O       1.04458920     3.40361003     1.58157627     0.63989485    -0.17030942     0.53094483
