# total energy = -19950.95962824 eV

CRYSTAL
PRIMVEC
        5.52151117     0.00000000     0.00000000
        1.72420094     5.61792304     0.00000000
        0.00000000     0.00000000     9.99790217
PRIMCOORD
24 1
Ti      3.02304208     3.32917602     3.70915040     0.80978081    -2.39858046     1.00949621
Ti      4.22266993     2.28874715     6.28875183    -0.80978081     2.39858046    -1.00949621
Ti      5.46438832     2.28874908     1.28976077    -1.82722816    -0.54934288     0.59078265
Ti      1.78132378     3.32917430     8.70814157     1.82722816     0.54934288    -0.59078265
Ti      2.16094174     0.52021459     1.28980086     0.80978081    -2.39858046    -1.00949621
Ti      5.08477030     5.09770874     8.70810149    -0.80978081     2.39858046     1.00949621
Ti      0.91922332     0.52021249     6.28871175     1.82722816     0.54934288     0.59078265
Ti      6.32648871     5.09771084     3.70919048    -1.82722816    -0.54934288    -0.59078265
O       2.35471358     1.97816625     5.10185296     1.17742813     1.66217999    -0.82180638
O       4.89099844     3.63975698     4.89604928    -1.17742813    -1.66217999     0.82180638
O       1.62032213     1.97818891     0.10293403    -0.02634945    -0.44746313     0.85087888
O       5.62538995     3.63973436     9.89496793     0.02634945     0.44746313    -0.85087888
O       4.02889807     0.83079539     0.10290159    -1.17742813    -1.66217999    -0.82180638
O       3.21681394     4.78712784     9.89500036     1.17742813     1.66217999     0.82180638
O       4.76328959     0.83077277     5.10188539     0.02634945     0.44746313     0.85087888
O       2.48242239     4.78715052     4.89601684    -0.02634945    -0.44746313    -0.85087888
O       1.24936603     3.41713930     2.70068280     0.27738485     1.07065995     0.97740523
O       5.99634599     2.20078392     7.29721943    -0.27738485    -1.07065995    -0.97740523
O       3.63680391     2.20073154     2.29830010     1.14458536     0.75909278    -0.03108362
O       3.60890811     3.41719169     7.69960196    -1.14458536    -0.75909278     0.03108362
O       0.38726560     0.60817772     2.29826817     0.27738485     1.07065995    -0.97740523
O       6.85844636     5.00974551     7.69963389    -0.27738485    -1.07065995     0.97740523
O       2.74680775     0.60823009     7.29725130    -1.14458536    -0.75909278    -0.03108362
O       4.49890427     5.00969313     2.70065087     1.14458536     0.75909278     0.03108362
