# total energy = -19075.44780784 eV

CRYSTAL
PRIMVEC
        7.60600008     0.00000000     0.00000000
        0.00000000     7.60600008     0.00000000
       -1.89786986    -1.89786986     4.85670466
PRIMCOORD
22 1
Ti      3.90568599     6.58515197     1.22524700    -0.14618604     0.88568957    -0.22497418
Ti      3.67006500     2.80854100     1.14208002     0.60708473    -0.19049696     0.71818703
Ti     -0.00873698     6.70438699     1.00402900    -0.08199894     0.00924800     1.21797573
Ti     -0.10339499     2.88682901     1.07195398    -0.76584630    -0.38435718     0.83958736
Ti      5.61276221     2.90129725     3.54582381    -0.38593661     0.10382273    -0.50210707
Ti     -1.23780676    -0.83005278     3.81788680    -2.58927694    -0.86441009    -0.55328695
Ti      1.81901325     2.77335923     3.64526781     0.42533775     0.02924477    -0.27294481
Ti      1.62292122    -1.03867577     3.81462982     1.16932890     0.97851980    -1.04862173
O       3.69634701     4.74558702     0.87493002     0.06554953    -0.04109293    -0.77184931
O       4.03725898     0.88399800     0.90671802    -1.02436645     0.09956729     0.02039785
O       0.00022702     4.81975401     0.66489201    -0.13363931    -0.49957350     0.19385688
O       7.26593898     0.99574500     0.68664997     1.44433959     0.27444145     0.98983575
O       5.34775125     4.91967924     4.02727981     1.58058445    -0.93497018    -0.67724065
O       5.64172821     0.90340722     3.96149281     0.56624120     0.97702625     0.22941808
O       2.19932823     4.80105220     4.15429383    -0.97551393    -1.16391312    -0.11060556
O       2.12910424     0.92420225     4.04971481    -1.23697002    -0.61444709     0.15666766
O       3.70028621     2.82823925     3.13805782     0.22616846     0.01799207     0.39185504
O      -0.05976475     2.74126320     3.20641783     0.11867420     0.77112195     0.03095995
O       5.83053500     6.56575800     2.04844101     0.04111941     0.12063029    -1.12396099
O       5.59045702     2.87105302     1.59064802     1.13233791     0.69800000     0.21233900
O       1.93940700     6.72052499     1.84754701     0.07374364    -0.27507086     0.29230883
O       1.78467001     2.76758199     1.56128900    -0.11077525     0.00302773    -0.00779842
