# total energy = -19955.25065139 eV

CRYSTAL
PRIMVEC
        5.46559444     0.00000000     0.00000000
        0.00002541     4.75940088     0.00000000
        0.00000000     0.00000000     8.98274792
PRIMCOORD
24 1
Ti      1.98103016     2.82041646     3.33253552    -0.34636218     1.24957151    -2.11699982
Ti      3.48458975     1.93898422     5.65021275     0.34636218    -1.24957151     2.11699982
Ti      4.71373268     1.93898576     1.15880272    -0.34311230    -1.24938691     2.11868569
Ti      0.75188723     2.82041507     7.82394565     0.34311230     1.24938691    -2.11868569
Ti      1.98101765     0.44071612     1.15883874    -0.34648636     1.24922827     2.11680699
Ti      3.48460226     4.31868471     7.82390964     0.34648636    -1.24922827    -2.11680699
Ti      0.75187472     0.44071438     5.65017673     0.34330308     1.24950852     2.11826249
Ti      4.71374518     4.31868640     3.33257154    -0.34330308    -1.24950852    -2.11826249
O       1.72990411     1.67586589     4.58382764     0.33458061    -1.23700190     1.24596554
O       3.73571579     3.08353479     4.39892063    -0.33458061     1.23700190    -1.24596554
O       1.00294295     1.67588512     0.09248244    -0.33457341    -1.23733486     1.24608252
O       4.46267701     3.08351561     8.89026558     0.33457341     1.23733486    -1.24608252
O       3.73570329     0.70383430     0.09245328    -0.33463331     1.23686203     1.24576242
O       1.72991662     4.05556638     8.89029474     0.33463331    -1.23686203    -1.24576242
O       4.46266446     0.70381512     4.58385680     0.33438315     1.23756523     1.24605527
O       1.00295535     4.05558561     4.39889147    -0.33438315    -1.23756523    -1.24605527
O       0.19859305     2.89493743     2.42646440     0.91038786    -0.37673977     0.48442481
O       5.26702686     1.86446325     6.55628387    -0.91038786     0.37673977    -0.48442481
O       2.93139574     1.86441901     2.06493831     0.91121781     0.37685727    -0.48400007
O       2.53422417     2.89498167     6.91780981    -0.91121781    -0.37685727     0.48400007
O       0.19858049     0.51523694     2.06490961     0.91038940    -0.37662536    -0.48390905
O       5.26703941     4.24416374     6.91783851    -0.91038940     0.37662536     0.48390905
O       2.53421161     0.51528118     6.55631252    -0.91088048    -0.37663153    -0.48468758
O       2.93140829     4.24411950     2.42643570     0.91088048     0.37663153     0.48468758
