# total energy = -19961.28010587 eV

CRYSTAL
PRIMVEC
        7.60600008     0.00000000     0.00000000
        0.00000000     7.60600008     0.00000000
       -1.89786986    -1.89786986     4.85670466
PRIMCOORD
24 1
Ti      3.89990600     6.71865699     1.16037601    -1.73344174     1.41435846     0.79692503
Ti      3.85686298     2.97251001     1.18468901    -0.54301899    -1.54089741     0.29243430
Ti     -0.06189098     6.55418801     1.23509801     2.09748488     1.00772215    -0.46773372
Ti      0.03553700     2.81642801     1.27717998    -0.00475166    -1.23938197    -0.70245675
Ti      5.69594120     2.72315624     3.65625279    -0.52860461     0.02487955     0.04206326
Ti      5.69490825    -1.03762975     3.66806879    -0.50315119     0.06185151     0.47392237
Ti      1.92811922     2.92247820     3.66144481     0.30232096    -0.05740427    -1.16354391
Ti      1.87269521    -0.82875179     3.65377984     0.24195401    -0.16063204    -1.57403945
O       3.86639802     4.80443999     0.71312699    -0.09842675     0.90875212     0.81914837
O       3.77554500     0.96521698     0.68913901     0.16842249     0.62361642     1.21198557
O      -0.01815798     4.66591102     0.76759197    -0.21078940    -0.49033527     0.82120217
O      -0.07290798     0.85102201     0.74577701    -0.03428413     1.18187640     0.31310083
O       5.65973722     4.68523123     4.08037782    -0.15752666    -0.40928481    -0.70171396
O       5.65900024     0.84355124     4.05767781     0.09680310     0.77274457     0.71651324
O       1.92656323     4.91110821     3.99799583     0.02936124    -2.71549167    -0.18884708
O       1.92259721     1.04392124     4.12405479    -0.21584265     0.06963141    -0.78885125
O       3.79514922     2.72812024     3.11778080    -1.08709136     0.62866041     1.51154311
O       3.72849723    -0.78226976     3.14440181     1.09776041    -0.65303371    -0.14981541
O      -0.06335278     2.67552325     3.28957381     1.32331232     0.73282689    -0.86190635
O      -0.04986675    -0.96735480     3.16948782    -0.29316578    -0.08941632     0.83552373
O       5.70641600     6.68893898     1.61428002    -1.01040047    -0.37481170    -0.06504456
O       5.61433302     2.72940503     1.70962501     1.85119728     0.48090986    -0.97832748
O       1.82023099     6.80686698     1.63304898     0.36681274    -0.72750111    -0.45565184
O       1.91670302     2.77972401     1.60508900    -1.15493405     0.55036103     0.26356980
