# total energy = -19961.61897197 eV

CRYSTAL
PRIMVEC
        7.60600008     0.00000000     0.00000000
        0.00000000     7.60600008     0.00000000
       -1.89786986    -1.89786986     4.85670466
PRIMCOORD
24 1
Ti      3.79384898     6.74637799     1.15005102     1.36116669    -0.15463829    -0.36515026
Ti      3.79866502     2.86171998     1.20408102     0.43436233     0.19064300    -0.26332863
Ti     -0.03353603     6.65384701     1.20567999    -0.91296359    -1.02086614     0.75329545
Ti     -0.03384200     2.77704902     1.27226102    -0.30877675     0.69929918    -0.26274164
Ti      5.63771620     2.82088025     3.68473083     0.21436401    -0.25401172     0.26634916
Ti      5.66432022    -0.95533179     3.66211782     0.54825401     0.11217599    -0.44275724
Ti      1.91798320     2.83541622     3.61244982     0.27498987     0.17729357     0.54964730
Ti      1.93625924    -0.92625080     3.48501780    -0.46212511    -0.01591488     1.40040534
O       3.94751300     4.76205200     0.86062800    -0.55183325     0.83715613    -0.90962553
O       3.90184802     1.03512902     0.77367698    -0.59426829    -1.07457240    -0.58433689
O      -0.15613698     4.72448099     0.84214098     0.38544116    -0.38117390     0.10598374
O      -0.08238798     0.84408698     0.83912399     0.30163525     1.95852673    -0.03435844
O       5.56722625     4.70767221     4.13210082     0.37023025     0.13188736    -0.79641364
O       5.80060521     0.90858220     4.15572483    -0.04167888    -0.26565805     0.07906248
O       2.14237023     4.84719524     3.97904281    -0.84666099    -1.07587672     0.66093651
O       1.90367721     1.00661621     4.02230184    -0.19204554    -0.58305519     0.15846049
O       3.86235621     2.59847620     3.27919981    -0.99668902     0.68342673    -0.41630084
O       3.81483821    -0.95429280     3.16696582    -0.35455063     0.46530942     0.06878526
O       0.04557423     2.84227022     3.21762581    -0.30715130     0.22965333     0.36603035
O      -0.00001476    -0.99514475     3.24457781     0.22244164    -0.29255462    -0.11639440
O       5.66212302     6.87036602     1.74570399     0.49865047    -0.69579142    -0.60773162
O       5.65310801     2.81425902     1.69562298     1.34697265     0.04266027    -0.06428249
O       1.90644100     6.67501998     1.54334201     0.01922620     0.08792945     0.05360624
O       1.93778502     2.82435001     1.62096400    -0.40899145     0.19815191     0.40086007
