# total energy = -19516.59825351 eV

CRYSTAL
PRIMVEC
        5.17600016     0.00000000     0.00000000
        0.00000000     5.50899976     0.00000000
        0.00000000     0.00000000     9.26300011
PRIMCOORD
23 1
Ti      1.84089700     3.20448898     3.34589499     0.82093272    -1.19223306     2.84878464
Ti      3.27964099     2.26078698     5.96126999     0.07119850     0.52470090    -2.59226636
Ti      4.45859102     2.04769402     1.33798202    -0.56002941     0.81710383     1.47397722
Ti      0.88075298     3.28149999     7.71411798     0.46033279     0.39647737    -1.27883916
Ti      2.09603701     0.23715100     1.29402698    -0.78112508     0.12851947     1.18753308
Ti      3.27275698     5.21418702     8.02155298    -0.17976003     0.53149556    -1.71185423
Ti      0.71004501     0.53378898     5.88605702    -0.19061806     0.22127899    -2.89775158
Ti      4.48541602     4.97799500     3.34895199     0.41551228    -0.26291159     3.34592794
O       1.52014902     1.91053900     4.70508998     0.17706911     0.23526760     1.25016389
O       3.48778799     3.48126498     4.44393101     0.39836661    -0.36559841     0.76674850
O       0.21982102     2.80827699     9.25667803    -0.73128577    -0.85572258     2.40058412
O       3.42236999     0.97216301     0.17565901     0.17747123    -0.40127582    -1.20657365
O       1.87085500     4.53162102     9.07963400     0.92930656     0.53401138     0.13250879
O       4.17500302     0.57431099     5.06833503    -1.01523208     1.19141417    -0.77457571
O       0.94031702     4.83558102     4.44026799     0.58581733    -0.46432855     0.12205751
O       0.17606198     3.45441702     2.59661498    -0.85110951    -0.87061545    -1.48321469
O       4.76163897     1.98438802     7.09926302     0.23524189     0.41344665    -1.53518596
O       2.65784200     1.84643400     2.28902499     0.26875263     0.39671339    -0.53310661
O       2.44230398     3.83735799     6.78943101     1.18892277    -0.34375508     0.26810420
O       0.20255498     0.61416698     2.02910201     1.08944006    -0.15616398    -0.51704055
O       0.07039502     4.86257101     7.19429902    -2.26670236    -1.08438681     1.59623888
O       2.18136700     1.12984402     7.10709098     0.04525375    -0.36012273     0.46449104
O       2.91505702     4.48472401     2.35893899    -0.28775566     0.96668450    -1.32671055
