# total energy = -19960.71811897 eV

CRYSTAL
PRIMVEC
        7.60600008     0.00000000     0.00000000
        0.00000000     7.60600008     0.00000000
       -1.89786986    -1.89786986     4.85670466
PRIMCOORD
24 1
Ti      3.77766298     6.60197198     1.22163098    -0.67022616    -1.19003194     0.36617845
Ti      3.83953899     2.80430901     1.18839700    -1.99582548     0.98229984    -1.23541604
Ti      0.03873599     6.63964300     1.21690003     0.71304996     1.56000611     0.92454693
Ti     -0.05119102     3.00096302     1.16118899     2.04583166    -2.03365594     1.03867413
Ti      5.69761822     2.93764024     3.61683083     1.78954477    -1.26885402    -0.69750455
Ti      5.67676324    -0.97112879     3.64904682     0.74954241     0.89700372     0.74561119
Ti      1.96264524     2.87179122     3.63348282    -1.97063689    -1.40561285    -0.93496350
Ti      1.87558822    -1.05007478     3.72756879    -0.65236625     1.03243534    -0.95308567
O       3.62446400     4.65429701     0.66726002     1.02438881     0.84427783     1.86548927
O       3.62110499     0.82787902     0.81404098     0.79456605     1.42117857     0.18709153
O       0.06767299     4.80217199     0.71952802    -0.83603873     0.46354616     0.18298394
O       0.07119699     1.00035397     0.84087900    -0.67854651    -0.79990366    -0.98654165
O       5.91682820     4.74793820     4.04881579    -0.77693958     0.83140585     0.03599906
O       5.97505521     1.00460925     4.04066783    -1.53207312    -0.69944393    -0.09555020
O       1.74596022     4.65765723     4.15163180     0.63310559     1.34529963    -0.53284333
O       1.76007825     0.92954625     4.08293581     0.99421485    -1.56080521    -0.25301284
O       3.76396322     2.87905720     3.09608882     1.78533330    -0.32279415     1.89548634
O       3.74048421    -1.08468578     3.25996581     0.90849090     0.16041607     0.62880953
O       0.01459222     2.78412423     3.12405981    -1.11931835     0.58319583     0.04999255
O       0.04752223    -1.01983976     3.17369484    -0.76662354    -0.03661844    -0.07144276
O       5.65540099     6.57796199     1.69569600     0.47534907     0.16348211    -0.51963428
O       5.69198301     2.98702603     1.62834301    -0.25907679    -0.09198768    -0.71288412
O       1.91915300     6.60493003     1.63191602    -0.66080692    -0.15667177     0.34708183
O       1.88472902     3.09404202     1.72836698     0.00506096    -0.71816723    -1.27506581
