# total energy = -19950.42913391 eV

CRYSTAL
PRIMVEC
        5.69332776     0.00000000     0.00000000
        0.00003120     6.05942242     0.00000000
        0.00000000     0.00000000    10.18980479
PRIMCOORD
24 1
Ti      2.06357597     3.59080812     3.78034497     0.02648237    -0.62019402     0.50050681
Ti      3.62978299     2.46861436     6.40946011    -0.02648237     0.62019402    -0.50050681
Ti      4.91014018     2.46861644     1.31451685     0.02764991     0.62062622    -0.50077498
Ti      0.78321878     3.59080627     8.87528835    -0.02764991    -0.62062622     0.50077498
Ti      2.06356049     0.56109703     1.31455771     0.02648237    -0.62019402    -0.50050681
Ti      3.62979847     5.49832562     8.87524749    -0.02648237     0.62019402     0.50050681
Ti      0.78320330     0.56109477     6.40941925    -0.02764991    -0.62062622    -0.50077498
Ti      4.91015566     5.49832788     3.78038584     0.02764991     0.62062622     0.50077498
O       1.80198517     2.13362570     5.19977950     1.06225321     0.96622787     0.04741759
O       3.89137379     3.92579684     4.99002559    -1.06225321    -0.96622787    -0.04741759
O       1.04473397     2.13365010     0.10490975    -1.06208120     0.96627081     0.04676324
O       4.64862505     3.92577243    10.08489504     1.06208120    -0.96627081    -0.04676324
O       3.89135831     0.89608557     0.10487669    -1.06225321    -0.96622787     0.04741759
O       1.80200065     5.16333691    10.08492810     1.06225321     0.96622787    -0.04741759
O       4.64860956     0.89606116     5.19981256     1.06208120    -0.96627081     0.04676324
O       1.04474934     5.16336137     4.98999253    -1.06208120     0.96627081    -0.04676324
O       0.20687072     3.68568422     2.75252055     0.37249257    -0.21948590     0.25447991
O       5.48648824     2.37373826     7.43728453    -0.37249257     0.21948590    -0.25447991
O       3.05353916     2.37368179     2.34241438     0.37240926     0.21967051    -0.25472828
O       2.63981980     3.68574069     7.84739053    -0.37240926    -0.21967051     0.25472828
O       0.20685524     0.65597295     2.34238185     0.37249257    -0.21948590    -0.25447991
O       5.48650372     5.40344953     7.84742306    -0.37249257     0.21948590     0.25447991
O       2.63980431     0.65602942     7.43731701    -0.37240926    -0.21967051    -0.25472828
O       3.05355465     5.40339305     2.75248801     0.37240926     0.21967051     0.25472828
