# total energy = -19949.40220698 eV

CRYSTAL
PRIMVEC
        4.82697059     0.00000000     0.00000000
        0.76631915     5.07988042     0.00000000
        0.00000000     0.00000000     8.66375043
PRIMCOORD
24 1
Ti      2.20366468     3.01033238     3.21418965     1.58085751    -0.24041418     0.10306374
Ti      3.38962500     2.06954790     5.44956098    -1.58085751     0.24041418    -0.10306374
Ti      4.47514971     2.06954961     1.11765102    -2.34242652    -0.67798319     1.66188277
Ti      1.11813999     3.01033087     7.54609971     2.34242652     0.67798319    -1.66188277
Ti      1.82050521     0.47039226     1.11768577     1.58003064    -0.24116648    -0.11211479
Ti      3.77278448     4.60948816     7.54606496    -1.58003064     0.24116648     0.11211479
Ti      0.73498049     0.47039040     5.44952624     2.34277799     0.67709333     1.67515172
Ti      4.85830920     4.60949003     3.21422439    -2.34277799    -0.67709333    -1.67515172
O       1.79760065     1.78871219     4.42104557    -1.52198565    -0.99953498    -0.54697592
O       3.79568903     3.29116809     4.24270501     1.52198565     0.99953498     0.54697592
O       1.15558393     1.78873273     0.08919816     1.51513571    -1.34700916    -0.13244117
O       4.43770580     3.29114760     8.57455222    -1.51513571     1.34700916     0.13244117
O       3.41252955     0.75122782     0.08917006     1.52291639     1.00014562    -0.54688284
O       2.18076013     4.32865246     8.57458032    -1.52291639    -1.00014562     0.54688284
O       4.05454632     0.75120733     4.42107372    -1.51400597     1.34578943    -0.13237535
O       1.53874331     4.32867300     4.24267691     1.51400597    -1.34578943     0.13237535
O       0.64149374     3.08987123     2.34029518    -0.84037849    -0.80382511    -1.48397059
O       4.95179593     1.99000900     6.32345545     0.84037849     0.80382511     1.48397059
O       2.88906309     1.98996176     1.99160770     0.36491758    -1.49831838    -1.09580277
O       2.70422659     3.08991848     6.67214278    -0.36491758     1.49831838     1.09580277
O       0.25833426     0.54993096     1.99157999    -0.83969766    -0.80302806     1.48408963
O       5.33495541     4.52994927     6.67217044     0.83969766     0.80302806    -1.48408963
O       2.32106711     0.54997821     6.32348306    -0.36430154     1.49807284    -1.09775553
O       3.27222257     4.52990203     2.34026752     0.36430154    -1.49807284     1.09775553
