# total energy = -19518.00344593 eV

CRYSTAL
PRIMVEC
        5.93400000     0.00000000     0.00000000
        0.00000000     9.29699974     0.00000000
        0.00000000     0.00000000     4.64899994
PRIMCOORD
23 1
Ti      4.50912300     7.00668801     2.17822601    -0.10595880     1.68705285     0.10861526
Ti      4.47124899     2.31720299     2.36190201     1.14364896     0.47915533    -0.12803970
Ti      1.42578301     6.98453601     2.26533600    -0.02349578     1.21015057    -0.01223588
Ti      1.50372399     2.26200599     2.31901299    -0.96041434     0.49098576     0.08841436
Ti      3.01298201     4.51343802     0.24200397    -0.36983224    -0.84847027    -0.94839958
Ti      2.97049501     9.28248600     4.51054601     0.34605622    -0.71715190     0.51460829
Ti      0.03629198     4.72870399     0.04621099     0.22860201    -1.62683990    -1.09018234
Ti      5.91195199     0.12500400     4.63104702    -0.10639409    -0.72715967     0.26666746
O       4.43155599     5.52488900     1.01918602    -0.52491739    -0.04884995    -0.94920767
O       4.39869498     0.83689499     0.89555402     0.31640753     0.60483347     0.41669576
O       1.48039399     5.51237099     1.04448799     0.55799953     0.29621691    -0.39170128
O       1.44262598     0.87753299     0.90348099     0.36122033     0.90343791     0.61340194
O       4.40682700     8.39178798     3.61102798     0.11076599     0.03043339     0.40970724
O       4.45330602     3.66759702     3.81801698    -0.60806124     1.04740071     0.26578095
O       1.49261301     8.45457999     3.76139300    -0.54048517    -1.35281111    -1.35813407
O       1.41293702     3.74759598     3.75973298     0.66860406     0.54176892     0.29455983
O       3.01817001     1.46244197     3.21495002    -1.01871079    -0.74867235     0.46091284
O       5.82580199     6.08482102     3.15264898     0.67847889    -0.33210283     1.25300522
O       0.00224202     1.41296099     3.27323900     0.09785057     0.38886124    -0.65811241
O       2.94273500     7.88996702     1.35586901    -0.35096214    -1.10296458     0.69192834
O       2.96866702     3.34096501     1.62055802    -0.15803651    -0.36478928    -0.73113562
O       0.04628502     7.79472999     1.28043500    -0.24193627     0.43618267     0.17250566
O       5.85330000     3.21621100     1.35005901     0.49957067    -0.24666813     0.71034542
