# total energy = -19075.14102575 eV

CRYSTAL
PRIMVEC
        7.60600008     0.00000000     0.00000000
        0.00000000     7.60600008     0.00000000
       -1.89786986    -1.89786986     4.85670466
PRIMCOORD
22 1
Ti      4.00193899     6.69095202     1.13358001     1.26405686    -0.81212154     0.87887435
Ti      3.56050600     2.69876497     1.16525402     1.19545131     1.34392306     0.51633504
Ti      0.14617400     6.81115998     1.14950401    -2.41295062    -1.46179225    -1.38361962
Ti     -0.11154099     2.92089199     1.14402200    -1.12610709     1.19295246    -0.06989804
Ti      5.59267824     2.86482323     3.53167081     0.42620987    -0.38668455     0.65174635
Ti     -1.29437877    -0.92338075     3.81981481    -0.63693371     0.11009931    -4.01874552
Ti      1.82591520     2.84616920     3.70084079    -0.19711010    -1.25978857    -0.34401707
Ti      1.46894821    -1.01127577     3.74012982     1.14051350    -0.00157557     0.34482774
O       3.76974400     4.59676798     0.71015100    -0.43198431     1.14825484     1.07217896
O       4.02550003     0.91686198     0.77944898    -0.76013305    -1.52913383     1.12291610
O      -0.22480000     4.76180598     0.68870302     0.79524944     0.47871593     0.21977849
O      -0.19548300     1.03130402     0.53903799    -0.44850366    -0.91934430     4.10541872
O       5.89681324     4.80272922     4.00562180     0.10078857     0.24490924    -0.09482438
O       5.67268524     0.94716923     3.99081283     0.81993050     0.46320857    -0.30712507
O       2.27278925     4.69364922     4.18168881    -0.92615927     0.65554722    -1.19142548
O       1.87845123     0.75678924     4.05421382    -0.81403547     0.97611376    -0.59177355
O       3.68013625     2.61093224     3.13196582     0.19641513     0.48111503     0.37294894
O      -0.10991980     2.90788021     3.23462679     1.33332446    -0.26733132     0.08150503
O       5.87397998     6.65225498     1.83702798    -0.87909752     0.30495660     0.28691876
O       5.64478902     2.90581298     1.59237499    -0.35786607    -0.26484326     0.16590024
O       1.80826402     6.72701302     1.90905498     1.96480100    -0.39868389    -0.75525078
O       1.77439699     2.85594999     1.71091101    -0.24585952    -0.09849746    -1.06266973
