# total energy = -19956.87058212 eV

CRYSTAL
PRIMVEC
        7.60600008     0.00000000     0.00000000
        0.00000000     7.60600008     0.00000000
       -1.89786986    -1.89786986     4.85670466
PRIMCOORD
24 1
Ti      3.66550598     6.74287003     1.21128900     1.26196346    -2.60070549    -0.23735868
Ti      3.82476801     2.88317102     1.10984001     0.19496811     2.47003967     0.13897872
Ti     -0.04600101     6.44942902     1.25450601    -1.67860137    -1.20786280    -0.67758698
Ti      0.04855402     2.66409101     1.15183303    -0.00704200     1.81491000     1.07452175
Ti      5.78354120     2.73693125     3.56451081    -0.36507519     3.51922730     1.47573534
Ti      5.67707021    -0.98421777     3.72594183    -0.31958336    -4.02245228    -1.97811263
Ti      1.95369224     3.01258624     3.53595783     0.28531799     0.13405480     1.63023736
Ti      1.81783223    -0.92155879     3.65608382     0.16262388    -0.45759457    -0.66933091
O       3.89646798     4.84706400     0.60690402     0.13062520    -0.33539436     2.05165007
O       3.53476703     0.97547899     0.70434900     0.38796778     1.33416855     1.55386991
O       0.17576802     4.70765898     0.56837801    -0.83531342    -1.39506618     2.41118041
O      -0.11942499     0.68504498     0.83213498     0.33616595     5.15026350     0.98923925
O       5.67855821     4.73015324     4.19320381    -0.27841715     0.35319000    -1.61241061
O       5.95180221     0.90614524     4.18963181    -0.31605760    -1.69791859    -1.18154704
O       1.92249725     4.79864021     4.18174781     0.29445338     2.07793138    -0.45393923
O       1.81807523     1.13507224     4.05153084     0.19895898    -2.42767764    -1.02968015
O       3.84718825     3.14222620     3.28739481     1.94594066    -1.68382226    -0.96867402
O       3.68919820    -1.05196177     3.42450781     0.92799401     1.21223677    -1.20399201
O       0.11710523     3.31687120     3.58010884    -1.85794128    -2.23124606    -3.34299405
O      -0.04967175     6.31121623     3.27212281    -0.58180049     1.21494671     0.09588213
O       5.63449198     6.40112101     1.56655299    -0.63582479     1.43628998     1.96154881
O       5.77932202     2.90300300     1.65664399     1.60950783    -0.90370427    -1.19364434
O       1.75789402     6.66391699     1.62595102     2.36463931     0.18663799     0.95537112
O       2.14259000     3.33480899     1.57631801    -3.22546991    -1.94045264     0.21105525
