# total energy = -19073.71162540 eV

CRYSTAL
PRIMVEC
        5.17600016     0.00000000     0.00000000
        0.00000000     5.50899976     0.00000000
        0.00000000     0.00000000     9.26300011
PRIMCOORD
22 1
Ti      1.81568001     3.33294501     3.12660002     0.30849084    -0.15318921     1.16950836
Ti      3.36969399     2.44923800     6.05444699     1.89792632    -1.38546028     0.26124963
Ti      4.42856301     2.24902898     1.30255498     0.16069015    -1.50917589    -1.79047962
Ti      0.91442501     3.12411802     7.88283001    -0.57639989    -1.00581927     0.60902155
Ti      1.76085302     0.50619201     1.23300601     0.38157216     0.61311706    -0.98192343
Ti      3.27936000     4.99924400     8.13419100     1.47889060     1.10033152     1.41389772
Ti      1.36370602     0.27097802     5.91842298    -0.53243298     0.05651852    -0.37666033
Ti      4.24209301     4.96390602     3.49983402     1.14757993     0.66827573     1.18032782
O       3.18887503     3.37258298     4.50868399     0.28550749     0.58718850    -0.87318527
O       0.91300501     1.86281298     0.23833598     0.12582752     0.28695527    -0.22523258
O       4.43478201     3.56633599     8.76165298    -1.00269924     0.07473557     0.43227691
O       3.49785802     0.76186098     0.20334699     0.17008522     0.27153893     0.13081032
O       1.74693100     4.56597701     9.01445301    -1.09318590     0.11110795     1.42363835
O       3.05220701     0.72467200     5.18065703     1.15660630    -0.77076328    -2.49886715
O       0.88682101     4.91169099     4.24163999    -0.44412250    -0.08906176     1.64040659
O       0.02598800     3.37492697     2.56009900    -0.65025588     0.23329196    -0.17327082
O       0.10550699     2.13964402     6.35676902    -0.29392991    -0.67918312    -0.21968285
O       2.85644201     1.89331402     2.33908701    -1.63966046    -0.11249403    -0.06259302
O       2.33798198     3.98004100     6.79865700    -0.91169552     0.03853828    -1.27635110
O       5.17459398     0.63147002     2.18097001     0.52523800    -0.18097153     0.34065844
O       2.37237601     1.25713898     7.25164098    -0.43499842     0.85076807     1.19356309
O       2.77679999     4.58913402     2.31723400    -0.05903409     0.99375180    -1.31711236
