# total energy = -4988.75727827 eV

CRYSTAL
PRIMVEC
        4.18346314     0.00000000     0.00000000
       -0.00000779     3.42283328     0.00000000
       -2.09175948    -1.71145576     4.90268963
PRIMCOORD
6 1
Ti     -0.00018157     2.56725253     1.22567254    -0.00220472    -0.00414668     5.18737662
Ti      2.09187744    -0.85587522     3.67701725     0.00220472     0.00414668    -5.18737662
O       0.00004315     0.85570112     0.79860814     0.00098139     0.00327147    -1.00786150
O       2.09165260     0.85567609     4.10408171    -0.00098139    -0.00327147     1.00786150
O      -0.00002024    -0.85569333     3.24995285    -0.00159588    -0.00036458    -0.53095974
O       2.09171589     2.56707054     1.65273694     0.00159588     0.00036458     0.53095974
