# total energy = -19893.98706401 eV

CRYSTAL
PRIMVEC
        6.70259969     0.00000000     0.00000000
        0.00002195     3.05725404     0.00000000
        0.00000000     0.00000000    10.20083286
PRIMCOORD
24 1
Ti      2.42938291     1.81172593     3.78443624    -1.34724262     1.03442615    -2.02774831
Ti      4.27323844     1.24552816     6.41639677     1.34724262    -1.03442615     2.02774831
Ti      5.78056803     1.24552920     1.31593947    -1.34567013    -1.03496711     2.02979954
Ti      0.92205331     1.81172498     8.88489364     1.34567013     1.03496711    -2.02979954
Ti      2.42937208     0.28309895     1.31598039    -1.34739045     1.03438450     2.02714282
Ti      4.27324926     2.77415518     8.88485272     1.34739045    -1.03438450    -2.02714282
Ti      0.92204248     0.28309782     6.41635585     1.34517416     1.03464135     2.03114011
Ti      5.78057886     2.77415632     3.78447716    -1.34517416    -1.03464135    -2.03114011
O       2.12142277     1.07651111     5.20540697     7.90047535    -2.21591148     5.18248123
O       4.58119857     1.98074293     4.99542604    -7.90047535     2.21591148    -5.18248123
O       1.22993156     1.07652344     0.10502328    -7.90040748    -2.21750634     5.18507034
O       5.47268983     1.98073065    10.09580943     7.90040748     2.21750634    -5.18507034
O       4.58118780     0.45211591     0.10499019    -7.90059260     2.21648175     5.18439851
O       2.12143355     2.60513818    10.09584252     7.90059260    -2.21648175    -5.18439851
O       5.47267905     0.45210358     5.20544005     7.89951248     2.21669233     5.18299520
O       1.22994224     2.60515051     4.99539295    -7.89951248    -2.21669233    -5.18299520
O       0.24353420     1.85959520     2.75549947     3.70257119    -1.47794726     1.04522684
O       6.45908715     1.19765884     7.44533354    -3.70257119     1.47794726    -1.04522684
O       3.59484257     1.19763036     2.34494946     3.70504690     1.47848308    -1.04121849
O       3.10777878     1.85962373     7.85588340    -3.70504690    -1.47848308     1.04121849
O       0.24352342     0.33096818     2.34491691     3.70273085    -1.47804240    -1.04132108
O       6.45909793     2.72628591     7.85591595    -3.70273085     1.47804240     1.04132108
O       3.10776800     0.33099666     7.44536604    -3.70446224    -1.47849182    -1.04545567
O       3.59485335     2.72625742     2.75546692     3.70446224     1.47849182     1.04545567
