# total energy = -4982.92046591 eV

CRYSTAL
PRIMVEC
        3.02753933     0.00000000     0.00000000
        2.23232981     4.18561769     0.00000000
       -0.00001436    -0.00006467     4.90886927
PRIMCOORD
6 1
Ti      2.62992715     2.09277641     2.45443474     0.00000000     0.00000000     0.00000000
Ti      0.00000000     0.00000000     0.00000000     0.00000000     0.00000000     0.00000000
O       1.94881495     0.81570260     0.95666637    -4.95190847     2.35581914     2.88383214
O       3.31103937     3.36985032     3.95220315     4.95190847    -2.35581914    -2.88383214
O       0.68110611     1.27704782     3.41110207     4.95125721    -2.35606057     2.88375166
O       1.55120900     2.90850518     1.49776741    -4.95125721     2.35606057    -2.88375166
