# total energy = -19938.27030525 eV

CRYSTAL
PRIMVEC
        5.95579738     0.00000000     0.00000000
        1.25523293     6.21324295     0.00000000
        0.00000000     0.00000000    10.71379830
PRIMCOORD
24 1
Ti      2.90253987     3.68196202     3.97474289     0.02203179    -1.79022380     0.83256825
Ti      4.30849015     2.53128108     6.73905583    -0.02203179     1.79022380    -0.83256825
Ti      5.64787379     2.53128331     1.38211366    -0.20851474    -0.28672156    -0.15099169
Ti      1.56315625     3.68196003     9.33168518     0.20851474     0.28672156     0.15099169
Ti      2.27492355     0.57534077     1.38215662     0.02203179    -1.79022380    -0.83256825
Ti      4.93610649     5.63790250     9.33164222    -0.02203179     1.79022380     0.83256825
Ti      0.93553983     0.57533837     6.73901287     0.20851474     0.28672156    -0.15099169
Ti      6.27549021     5.63790491     3.97478585    -0.20851474    -0.28672156     0.15099169
O       2.32703622     2.18778849     5.46716943     1.64536857     1.84187985    -0.53628372
O       4.88399380     4.02545460     5.24662930    -1.64536857    -1.84187985     0.53628372
O       1.53487991     2.18781351     0.11030457    -0.77639451     0.27060897     0.76193462
O       5.67615018     4.02542964    10.60349385     0.77639451    -0.27060897    -0.76193462
O       4.25637746     0.91883318     0.11026979    -1.64536857    -1.84187985    -0.53628372
O       2.95465256     5.29440992    10.60352863     1.64536857     1.84187985     0.53628372
O       5.04853384     0.91880821     5.46720421     0.77639451    -0.27060897     0.76193462
O       2.16249612     5.29443495     5.24659452    -0.77639451     0.27060897    -0.76193462
O       0.97989165     3.77924650     2.89406431     0.39766702     1.10821658     1.26243732
O       6.23113837     2.43399660     7.81973441    -0.39766702    -1.10821658    -1.26243732
O       3.68601566     2.43393857     2.46286913     0.72379718     1.26631069     0.44100452
O       3.52501436     3.77930453     8.25092941    -0.72379718    -1.26631069    -0.44100452
O       0.35227531     0.67262507     2.46283490     0.39766702     1.10821658    -1.26243732
O       6.85875471     5.54061809     8.25096364    -0.39766702    -1.10821658     1.26243732
O       2.89739802     0.67268305     7.81976858    -0.72379718    -1.26631069     0.44100452
O       4.31363200     5.54056005     2.89403008     0.72379718     1.26631069    -0.44100452
