# total energy = -19515.57933544 eV

CRYSTAL
PRIMVEC
        5.17600016     0.00000000     0.00000000
        0.00000000     5.50899976     0.00000000
        0.00000000     0.00000000     9.26300011
PRIMCOORD
23 1
Ti      1.98350598     3.23159900     3.40688102    -1.63600666    -1.50639730     3.43054066
Ti      3.41081302     2.30333902     5.86843103    -2.74451635     0.21176025    -2.10150995
Ti      4.32643699     2.08899398     1.59982798     0.25183708    -0.80106554    -1.01875681
Ti      0.75248402     3.36693100     7.76808401     0.57957958     1.32722708     1.43100147
Ti      1.99111502     0.17346298     1.41606202    -1.60386760     0.18100882    -1.52079754
Ti      3.10403299     5.28679199     7.84769401     1.51449191    -0.37899489     0.16568041
Ti      0.66960200     0.57745298     5.88939899     0.63629016    -0.39212037    -3.25471570
Ti      4.54782300     4.83738599     3.41387998     2.02948021     0.72197272     2.39244092
O       1.97031000     1.84235197     4.60953798    -0.92934795    -0.16867394     1.87710141
O       3.66521102     3.63833998     4.41547699    -0.00543069    -1.94348295     1.25526291
O       4.95655702     2.69284099     0.02725099     0.75932006     0.86716400    -2.21190776
O       3.39151398     0.66366299     0.35575798     0.93376279     0.35960336    -1.71549569
O       1.77994801     4.64494798     8.88087301    -1.54425964    -0.76223518     2.32508416
O       4.33487800     0.64204002     4.79661002    -0.80390995     1.32772691    -0.24186993
O       1.09685902     4.68517699     4.54727498    -0.29405075    -0.33758546    -0.87930115
O       0.37857102     3.20581097     2.46898103    -0.41641037     1.48904929     0.26736732
O       5.14101202     2.45905303     6.41687102     0.50806817    -1.03148558     0.03094607
O       2.74654100     1.48011200     2.44200801    -0.47927360     2.51168873     0.13896021
O       2.46554301     3.79141699     6.73625499     0.52374136    -0.60085726     0.83510567
O       0.11249398     0.65778801     2.18918099     1.62722248    -0.98359465    -1.00167620
O       5.03741700     5.01137301     7.11674100    -1.20828909    -0.97358251     1.85742192
O       2.15673501     1.10723698     7.07551598     0.81313302     1.25519709    -0.06032479
O       2.87496798     4.48129701     2.39324999     1.48843608    -0.37232210    -2.00055760
