# total energy = -4980.46645786 eV

CRYSTAL
PRIMVEC
        4.52735602     0.00000000     0.00000000
        0.00000000     3.04015203     0.00000000
        0.00000000    -0.00009743     6.03204812
PRIMCOORD
6 1
Ti      2.26367801     1.52002724     3.01602394     0.00000000     0.00000000     0.00000000
Ti      0.00000000     0.00000000     0.00000000     0.00000000     0.00000000     0.00000000
O       2.26367801     0.59246186     1.17555732     0.00000000     0.10652547     2.73474461
O       2.26367801     2.44759268     4.85649057     0.00000000    -0.10652547    -2.73474461
O       0.00000000     0.92752674     4.19158241     0.00000000    -0.10679518     2.73315978
O       0.00000000     2.11252773     1.84046542     0.00000000     0.10679518    -2.73315978
