# total energy = -4983.87835794 eV

CRYSTAL
PRIMVEC
        4.90606142     0.00000000     0.00000000
       -0.00000796     3.27070723     0.00000000
       -2.45305962    -1.63540353     5.43509159
PRIMCOORD
6 1
Ti     -0.00021085     2.45314924     1.35877261    -0.00496403    -0.00901429     7.97496435
Ti      2.45320474    -0.81784588     4.07631823     0.00496403     0.00901429    -7.97496435
O       0.00005163     0.81766792     0.88533187     0.00201009     0.00174347    -2.98151610
O       2.45294215     0.81763539     4.54975903    -0.00201009    -0.00174347     2.98151610
O      -0.00002102    -0.81767094     3.60287755    -0.00235205    -0.00007713    -2.22359908
O       2.45301474     2.45297419     1.83221341     0.00235205     0.00007713     2.22359908
