# total energy = -4989.94936123 eV

CRYSTAL
PRIMVEC
        3.07161055     0.00000000     0.00000000
        0.24048763     4.80674103     0.00000000
       -0.00000133    -0.00006246     4.81425900
PRIMCOORD
6 1
Ti      1.65604831     2.40333912     2.40712939     0.00000000     0.00000000     0.00000000
Ti      0.00000000     0.00000000     0.00000000     0.00000000     0.00000000     0.00000000
O       1.58267243     0.93675074     0.93822810    -0.03545373    -0.31067320    -0.31917995
O       1.72942414     3.86992751     3.87603062     0.03545373     0.31067320     0.31917995
O       0.07337523     1.46656307     3.34535847     0.03556917     0.31054798    -0.31908713
O       0.16711096     3.34011539     1.46890026    -0.03556917    -0.31054798     0.31908713
