# total energy = -19075.63751359 eV

CRYSTAL
PRIMVEC
        7.60600008     0.00000000     0.00000000
        0.00000000     7.60600008     0.00000000
       -1.89786986    -1.89786986     4.85670466
PRIMCOORD
22 1
Ti      3.87998702     6.51097699     1.29891599     0.59453723    -0.56294093    -0.77175984
Ti      3.83864801     2.72174503     1.17944798    -0.13265792     0.97034703     0.38704399
Ti      0.08546800     6.74149199     1.08917802    -0.24151435    -1.09338002     1.12085613
Ti      0.00342298     2.90644598     1.03590098    -0.38124692     0.86882596     0.74922231
Ti      5.73243522     3.02170920     3.56329280     0.18663516    -0.79028696    -0.21067550
Ti      6.08120325    -0.78130280     3.67577382    -1.15093702    -0.66285352    -0.95536444
Ti      1.89184121     2.79798423     3.62751783    -0.38017348    -0.16466868    -0.57165106
Ti      1.28333225    -1.11440876     3.89560982     1.73269766     0.60704128    -1.48602619
O       3.70721298     4.73056600     0.82998398     0.12054904    -0.18353570     0.38047276
O       4.02974598     0.76130799     0.77836798    -0.75119409     1.49164945     1.21031384
O       0.14901499     4.78063199     0.62556800     0.20935524     0.49404280     0.18334183
O       0.04744900     1.00937301     0.74986300    -0.01457842     0.36349062     0.49162467
O       5.64070722     4.88581724     4.06794681     0.09370697     0.37344773    -1.64967439
O       5.36447521     1.02276225     3.87411083     1.70196628    -1.27039257     0.66745631
O       2.01285421     4.63264921     4.13337783    -0.95062975     1.24091075     0.25819876
O       1.78303120     0.95064825     4.08387981    -0.31172529    -1.91709133     0.39040262
O       3.76517122     2.78587623     3.14266182     0.15115624     0.38297881    -0.34106082
O      -0.00245480     2.85295421     3.22875081    -0.51000241     0.19734998    -0.44919940
O       5.89074198     6.47888900     1.70958400    -0.82201567     0.54840905     0.56914449
O       5.76157199     3.16433602     1.55755899    -0.94345174    -0.93956835     0.09380108
O       1.79429998     6.55561399     2.08518300     0.56339447     0.29543246    -0.34582636
O       1.82323799     2.83511702     1.55618498     1.23612849    -0.24920838     0.27935946
