# total energy = -4988.98071553 eV

CRYSTAL
PRIMVEC
        3.39403353     0.00000000     0.00000000
        0.00000000     4.35104327     0.00000000
        0.00000000    -0.00006389     4.88332585
PRIMCOORD
6 1
Ti      1.69701677     2.17548963     2.44166304     0.00000000     0.00000000     0.00000000
Ti      0.00000000     0.00000000     0.00000000     0.00000000     0.00000000     0.00000000
O       1.69701677     0.84794178     0.95168835     0.00000000     0.12012198     0.04791201
O       1.69701677     3.50303748     3.93163773     0.00000000    -0.12012198    -0.04791201
O       0.00000000     1.32752200     3.39335226    -0.00000000    -0.12030402     0.04797089
O       0.00000000     3.02345727     1.48997382    -0.00000000     0.12030402    -0.04797089
