# total energy = -19961.39188947 eV

CRYSTAL
PRIMVEC
        7.60600008     0.00000000     0.00000000
        0.00000000     7.60600008     0.00000000
       -1.89786986    -1.89786986     4.85670466
PRIMCOORD
24 1
Ti      3.82670099     6.54087698     1.20645602    -0.08029172     0.89798974     1.50889744
Ti      3.77989701     2.76651998     1.13297198    -0.52375833    -0.02184744     0.74584157
Ti      0.04704597     6.77923800     1.28863302    -0.12803301    -0.97522596    -0.84893461
Ti     -0.04421302     2.90149998     1.24713002     0.76802094     1.03310331    -0.78141331
Ti      5.64623024     2.93301222     3.61856383     1.02519614    -0.68455724     1.08016018
Ti      5.70167923    -0.91938578     3.64736483    -0.58874042     0.87421962     0.01611028
Ti      1.93684123     2.76362623     3.65351281    -0.38581808     0.29930737    -1.09317922
Ti      1.86687823    -1.09316277     3.70097382     0.51509783     0.35131798    -1.03193603
O       3.74142498     4.75128499     0.84334502     0.61300547    -0.87369974    -1.19281953
O       3.76189302     0.88657700     0.82171998     0.24825733    -0.26544747    -0.58805008
O       0.06655700     4.81561098     0.75281899    -0.46787641    -0.21538602    -0.33216968
O      -0.08604099     1.01874400     0.80773901     0.34527306     0.33618832     0.38359434
O       5.66052522     4.86277824     4.08882783    -0.03201796    -1.19765809     0.13663104
O       5.76239724     0.99590021     3.85728680     0.02813971     0.46664563     1.31162794
O       1.90928422     4.64647820     3.92568481     0.46560382     0.51256966     1.20557966
O       1.85533724     0.82314924     4.03917883     0.12975925     1.69419538     0.37034801
O       3.85367522     2.71281823     3.21754881    -1.59850145     0.28115743    -0.12988935
O       3.77915621    -0.92513778     3.19788580    -0.49821184    -0.33575689    -0.11442622
O       0.07283622     3.01700524     3.13745080    -0.20972342    -0.76299083     0.42778030
O      -0.01921977    -0.94759580     3.24631579     1.42659280    -0.22003560     0.18280782
O       5.74367299     6.65808398     1.74870702    -0.87849408    -0.23032619    -1.68779127
O       5.71583398     2.93247298     1.63440098    -0.62657396     0.18097616    -0.60122544
O       1.91688400     6.66581197     1.60115399    -0.20124546     0.03000479     0.30787609
O       1.93441601     3.02043198     1.54280500     0.65434008    -1.17474441     0.72458008
