# total energy = -19517.63364645 eV

CRYSTAL
PRIMVEC
        7.60600008     0.00000000     0.00000000
        0.00000000     7.60600008     0.00000000
       -1.89786986    -1.89786986     4.85670466
PRIMCOORD
23 1
Ti      3.81661799     6.57378699     1.22599298     0.57071749    -1.96740398     0.13315723
Ti      3.86208099     2.73022202     1.23126100     0.78206405     2.08016567    -0.64096983
Ti      0.03583699     6.83585398     1.28581298    -1.04720402    -1.51095767    -0.94130410
Ti      0.02451498     2.87446801     1.17169400    -1.51706636     2.86315146    -0.30453083
Ti      5.66501524     2.89087420     3.60000680    -0.78353138     0.33294821     1.69860816
Ti      5.61499222    -0.98292378     3.61877079     0.38311482     0.09092915    -0.28629501
Ti      1.97425422     2.77821723     3.54829179     0.63998355    -0.72739749     2.52702151
Ti      1.84311521    -1.12601076     3.71888779     0.25879526     0.98364890    -0.51472964
O       4.14784702     4.70925101     0.66476299    -1.22855222     1.12521646     0.87544784
O       3.98566700     0.89136098     0.89349901    -0.93625188    -0.31149569    -1.19482242
O      -0.29649098     4.78682098     0.83469599     1.26737924     0.61962709    -0.02783760
O      -0.25367302     1.11246700     0.65000202     0.61534260    -1.88750615     1.46495470
O       5.79307222     4.79398821     4.17549680     0.62216889    -0.03414452    -0.78718723
O       5.66729022     1.06652023     4.09891083     0.28502257    -0.23995035    -1.68902771
O       1.81696724     4.63624820     3.97836880    -1.00749897     1.45144201     0.74656610
O       1.92126823     0.93248921     4.04140683    -0.30848879    -0.94769149    -0.30828387
O       3.81378023     3.08791420     3.09230579    -0.35774497    -0.70820780     0.43004570
O       3.75277821     6.27899923     3.27087882    -0.20481930     1.07706637    -1.14284909
O      -0.05171676    -0.82299175     3.24417982     1.64060534    -0.48087720     0.52163409
O       5.75317701     6.82485302     1.69592699    -1.55520123    -0.25903771    -0.14022648
O       5.69236598     2.95059699     1.67642702     1.21066634    -0.82703678     0.03658733
O       1.91637202     6.67930700     1.48652203     0.17224958     0.03463483     1.19718835
O       1.78784402     3.05630602     1.72901300     0.49824990    -0.75712331    -1.65314667
