# total energy = -4983.32309376 eV

CRYSTAL
PRIMVEC
        4.21584070     0.00000000     0.00000000
        0.00000000     2.83096725     0.00000000
        0.00000000    -0.00009073     5.61699893
PRIMCOORD
6 1
Ti      2.10792035     1.41543821     2.80849936     0.00000000     0.00000000     0.00000000
Ti      0.00000000     0.00000000     0.00000000     0.00000000     0.00000000     0.00000000
O       2.10792035     0.55169613     1.09467034     0.00000000    -0.56027393     1.66212265
O       2.10792035     2.27918034     4.52232838     0.00000000     0.56027393    -1.66212265
O       0.00000000     0.86370610     3.90317078     0.00000000     0.56098715     1.66381007
O       0.00000000     1.96717032     1.71382789     0.00000000    -0.56098715    -1.66381007
