# total energy = -19960.66138920 eV

CRYSTAL
PRIMVEC
        7.60600008     0.00000000     0.00000000
        0.00000000     7.60600008     0.00000000
       -1.89786986    -1.89786986     4.85670466
PRIMCOORD
24 1
Ti      3.81398603     6.48003298     1.21789901    -1.45946283     1.46016217     0.56624737
Ti      3.82301199     2.86887202     1.24121900    -1.06456952    -0.84249734    -0.73541574
Ti     -0.01063498     6.74283499     1.21443999     1.42694556     0.39177199     0.51721590
Ti     -0.03266399     2.95583500     1.21622300     0.75519010    -1.05446765     0.49604877
Ti      5.70610622     2.87807923     3.67715481     0.98129737    -0.28914431    -0.56282240
Ti      5.77039422    -0.96705576     3.60285081    -0.80793656     0.53805959     0.19287446
Ti      1.93661321     2.83889921     3.64307082    -1.03173343    -0.55555466    -0.81358476
Ti      1.91351822    -1.05648375     3.70896980     0.35875310     0.73825475    -0.16305917
O       3.52919098     4.68173300     0.71110098     0.92155699     0.52175133     0.85859939
O       3.61735598     0.78591400     0.80517298     0.98078803     1.68129589    -0.02291059
O       0.06561898     4.84248498     0.75967702    -0.35880684     0.08838479    -0.57772170
O      -0.03859999     1.04348298     0.82259799     0.13619910    -1.14234901    -0.98646117
O       5.88079822     4.81243925     3.79350681    -0.06952677    -0.60437659     1.73390865
O       5.73731122     0.95766821     3.95259184    -0.46310110     0.51895371     0.69800000
O       1.75732922     4.68029221     4.06569479     0.31143167    -0.20348309    -0.07670658
O       1.73874224     0.89283622     4.19371579     1.23411018    -0.40144500    -0.67800195
O       3.84843822     3.11543321     3.28076179    -0.26588405    -1.21818913     0.01483604
O       3.81150625    -1.09028775     3.24512683     0.01099867     0.06361889     0.13957907
O       0.01745020     2.56530123     3.14927384    -0.91996625     1.22019202    -0.33204730
O       0.06189220    -1.01546278     3.14313580    -0.94643885     0.50317099    -0.50917555
O       5.65925202     6.64171298     1.56092398     1.30990118     0.04552628     0.15740479
O       5.67957402     3.02207698     1.53365600     0.02914064    -0.20724462     0.34663086
O       1.94775202     6.71976498     1.62823601    -1.34586090    -0.38910704     0.29166425
O       1.87850298     3.07322000     1.73924502     0.27697476    -0.86328394    -0.55510266
