# total energy = -19960.04031942 eV

CRYSTAL
PRIMVEC
        7.60600008     0.00000000     0.00000000
        0.00000000     7.60600008     0.00000000
       -1.89786986    -1.89786986     4.85670466
PRIMCOORD
24 1
Ti      3.84204898     6.65366699     1.08483897     0.15572869    -0.68561628     0.99013682
Ti      3.80878199     2.62983101     1.21395198    -0.22836290     0.71381872     0.86029324
Ti     -0.02415398     6.71429599     1.20413003    -0.42818962     0.65003426     0.37339065
Ti     -0.06173001     2.88738100     1.34457600    -0.11935091    -0.63806782    -1.15097507
Ti      5.60902125     2.95417624     3.66180682     0.31011578    -1.37327736     0.43459116
Ti      5.66534724    -0.87199277     3.68107580     0.01557086     1.56995217    -0.58539181
Ti      1.93025821     2.73654024     3.74473080    -0.03560105     0.35266961    -0.44557594
Ti      1.98070521    -0.95477176     3.59474382     0.35573694    -0.48029253    -0.54501545
O       3.89257398     4.69389100     0.87276701    -0.40147765     0.31287663    -1.21056375
O       4.22313302     0.85814500     0.68965898    -1.33748553     0.41975537    -0.30469486
O      -0.26874298     4.84002399     0.79253702     1.14935244    -0.07051664     0.30437450
O      -0.26188199     1.07210798     0.77628001     1.03940046    -0.77309990    -0.25485195
O       5.57861525     4.93214020     4.02320382     0.46165846    -1.67085361     0.33623948
O       5.46355524     1.10744522     4.02162983     1.10642529    -0.68004855     0.85252156
O       2.07970025     4.78617724     3.90451883    -0.80734880    -1.27013623     0.49873815
O       2.09766222     0.89871522     4.18762581    -0.81056217     0.61380123    -1.00448795
O       3.80619024     2.86894425     3.19354480    -1.47913306     0.29504242    -0.32990505
O       3.80888624    -0.82435475     3.15181579    -0.56177905    -0.20010929    -0.98477736
O      -0.07531976     2.77219424     3.35828980     1.43072405     0.80185538    -0.71398559
O       0.06569122    -0.82322078     3.19905984     0.59335375    -0.09654882    -0.10596934
O       5.73949799     6.73641099     1.69642198    -0.01906474    -0.44825452    -0.18511744
O       5.70234800     2.66692798     1.57391200    -0.18112297     1.40485180     1.42413148
O       1.97769398     6.77621200     1.30902502    -0.52777003    -0.20773801     1.08329384
O       1.87129099     2.34257402     1.61011201     0.31918124     1.45990146     0.66360069
