# total energy = -19518.90306502 eV

CRYSTAL
PRIMVEC
        7.60600008     0.00000000     0.00000000
        0.00000000     7.60600008     0.00000000
       -1.89786986    -1.89786986     4.85670466
PRIMCOORD
23 1
Ti      3.85643102     6.74154200     1.09638901    -0.56964354     0.38170895     1.71593843
Ti      3.69119701     2.89848102     1.36612298     0.71784610    -0.79269634    -0.10340055
Ti      0.00944200     6.66287901     1.16338698     0.51661683    -0.24971257    -0.47390257
Ti     -0.02244601     2.76077000     1.13105499    -0.45584056     0.07501993     0.86853208
Ti      5.69368125     2.81785822     3.71592879    -0.49539134     1.18515533    -0.76613400
Ti      5.74932021    -0.94913877     3.55510881    -2.28803969    -1.20359014     0.06367776
Ti      1.93009321     2.81005820     3.77893084     0.54394947     0.15965991    -1.11334233
Ti      1.80230024    -0.88436478     3.58963784     2.57493789    -0.49370393     0.00028514
O       3.78712398     4.73777398     0.77599102    -0.27748590    -0.12612294     1.34237680
O       3.91767101     0.97340001     0.78168301    -0.65824353     0.98822495     0.25248268
O       0.09523799     4.83230599     0.79044799    -0.04065867    -1.49656771    -0.20871298
O      -0.04420101     0.86230502     0.66514400     0.22761188     0.90241152     0.77141325
O       5.76028820     4.71305823     3.95933980     0.28002949    -0.46187160     0.09137704
O       5.68764323     0.89809523     4.15417080     0.60544900     0.82270678    -2.05768728
O       2.06410624     4.78831221     4.07288483    -0.95282856    -0.78261632    -0.54782438
O       1.72037821     0.93581425     4.13120382    -0.28709103     0.41590386    -0.59231245
O       3.79632024     2.81505623     3.30544579     0.05249423    -0.29936934    -0.42905557
O       3.83704625    -1.08935079     3.19099380     0.05630255     0.76079228    -0.21198702
O       0.04604424    -1.19297476     3.19117282    -0.81367372     0.61665181    -0.31820499
O       5.68142698     6.75567299     1.59904898     1.43965838    -0.26390198     0.01062355
O       5.80490002     2.81073502     1.59465098    -0.54139508     0.22600879     1.17732220
O       1.91274599     6.83964099     1.58094302    -0.20681422    -0.17092392     0.43730830
O       1.75802202     2.84980502     1.75171598     0.57221028    -0.19316705     0.09122714
