# total energy = -19875.49409608 eV

CRYSTAL
PRIMVEC
        9.64372065     0.00000000     0.00000000
        0.00003036     3.89317890     0.00000000
        0.00000000     0.00000000    14.92607514
PRIMCOORD
24 1
Ti      3.49540303     2.30709416     5.53746744     0.28465311    -0.19173469     2.34320556
Ti      6.14834826     1.58608461     9.38860783    -0.28465311     0.19173469    -2.34320556
Ti      8.31709876     1.58608593     1.92551056     0.28445050     0.19174575    -2.34428954
Ti      1.32665252     2.30709304    13.00056485    -0.28445050    -0.19174575     2.34428954
Ti      3.49538798     0.36050478     1.92557040     0.28465311    -0.19173469    -2.34320556
Ti      6.14836331     3.53267413    13.00050501    -0.28465311     0.19173469     2.34320556
Ti      1.32663748     0.36050338     9.38854799    -0.28445050    -0.19174575    -2.34428954
Ti      8.31711381     3.53267552     5.53752728     0.28445050     0.19174575     2.34428954
O       3.05230929     1.37085445     7.61666187     0.64653138     0.82016961    -2.38731979
O       6.59144206     2.52232432     7.30941340    -0.64653138    -0.82016961     2.38731979
O       1.76962901     1.37087013     0.15367231    -0.64729732     0.82046015    -2.38903112
O       7.87412241     2.52230864    14.77240255     0.64729732    -0.82046015     2.38903112
O       6.59142701     0.57573487     0.15362390    -0.64653138    -0.82016961    -2.38731979
O       3.05232427     3.31744390    14.77245097     0.64653138     0.82016961     2.38731979
O       7.87410736     0.57571919     7.61671036     0.64729732    -0.82046015    -2.38903112
O       1.76964385     3.31745965     7.30936492    -0.64729732     0.82046015     2.38903112
O       0.35039717     2.36805209     4.03190525    -1.88964017     0.57419388    -0.01115216
O       9.29335412     1.52512668    10.89417002     1.88964017    -0.57419388     0.01115216
O       5.17227020     1.52509049     3.43117978    -1.88863641    -0.57427744     0.01126864
O       4.47148116     2.36808835    11.49489522     1.88863641     0.57427744    -0.01126864
O       0.35038212     0.42146264     3.43113212    -1.88964017     0.57419388     0.01115216
O       9.29336916     3.47171613    11.49494289     1.88964017    -0.57419388    -0.01115216
O       4.47146611     0.42149883    10.89421756     1.88863641     0.57427744     0.01126864
O       5.17228524     3.47167994     4.03185765    -1.88863641    -0.57427744    -0.01126864
