# total energy = -19897.29801117 eV

CRYSTAL
PRIMVEC
        6.35841200     0.00000000     0.00000000
        0.00002128     3.25831669     0.00000000
        0.00000000     0.00000000     9.60655014
PRIMCOORD
24 1
Ti      2.30463125     1.93087552     3.56396159    -1.44011758     2.08330370    -3.65399249
Ti      4.05380218     1.32744132     6.04258865     1.44011758    -2.08330370     3.65399249
Ti      5.48372841     1.32744248     1.23927515    -1.43792726    -2.08304350     3.65738995
Ti      0.87470507     1.93087450     8.36727523     1.43792726     2.08304350    -3.65738995
Ti      2.30462065     0.30171722     1.23931368    -1.44024151     2.08336798     3.65354255
Ti      4.05381282     2.95659971     8.36723671     1.44024151    -2.08336798    -3.65354255
Ti      0.87469443     0.30171596     6.04255013     1.43840883     2.08392771     3.65713464
Ti      5.48373900     2.95660097     3.56400011    -1.43840883    -2.08392771    -3.65713464
O       2.01248511     1.14730874     4.90214901     6.83505532    -3.09855738     6.29729141
O       4.34594836     2.11100809     4.70440123    -6.83505532     3.09855738    -6.29729141
O       1.16677322     1.14732186     0.09890481    -6.83569347    -3.09937808     6.29890992
O       5.19166031     2.11099498     9.50764514     6.83569347     3.09937808    -6.29890992
O       4.34593772     0.48184975     0.09887365    -6.83483703     3.09959122     6.29798766
O       2.01249571     2.77646709     9.50767634     6.83483703    -3.09959122    -6.29798766
O       5.19164971     0.48183663     4.90218017     6.83556414     3.10031268     6.29876568
O       1.16678367     2.77648025     4.70437007    -6.83556414    -3.10031268    -6.29876568
O       0.23102885     1.98189295     2.59496885     4.68699245    -1.45388739     1.48907603
O       6.12740458     1.27642394     7.01158139    -4.68699245     1.45388739    -1.48907603
O       3.41024281     1.27639352     2.20833680     4.68894340     1.45400283    -1.49048422
O       2.94819062     1.98192336     7.39821329    -4.68894340    -1.45400283     1.49048422
O       0.23101826     0.35273455     2.20830613     4.68642012    -1.45255273    -1.49009702
O       6.12741522     2.90558228     7.39824397    -4.68642012     1.45255273     1.49009702
O       2.94818003     0.35276497     7.01161202    -4.68839858    -1.45312865    -1.49094240
O       3.41025345     2.90555187     2.59493817     4.68839858     1.45312865     1.49094240
