# total energy = -19515.27901523 eV

CRYSTAL
PRIMVEC
        5.93400000     0.00000000     0.00000000
        0.00000000     9.29699974     0.00000000
        0.00000000     0.00000000     4.64899994
PRIMCOORD
23 1
Ti      4.52825800     6.98795498     2.27006197     1.60485516     0.91747742    -0.46057731
Ti      4.38652099     2.25219399     2.49560600     2.12182733     0.05457631    -2.60548955
Ti      1.51179802     7.01860598     2.11294401    -1.41864886     2.10390493     1.04454061
Ti      1.42186397     2.30650101     2.27403800    -0.36162245     1.01821534     0.16212945
Ti      2.96017901     4.37600201     0.15669198     0.25111640     0.26768665    -0.33036091
Ti      2.94444901     9.25226802     4.56983699    -0.37061849    -1.27299427    -0.35135783
Ti      0.05677802     4.71245602     0.04224898     0.17129518    -0.26774553    -0.07293760
Ti      5.88720899     0.25653301     4.64580700     0.42448852    -2.89212523     0.61139879
O       4.31049600     5.59704501     0.89240700     0.44117601    -0.52101985    -1.22846995
O       4.36053701     0.85758799     0.95693800     0.80919743     0.15480412    -1.13984424
O       1.56535203     5.47812502     0.96156100    -0.77710671     0.22660786    -0.73502750
O       1.62117001     1.03571000     0.92385198    -0.66504385    -0.48281530    -0.86495671
O       4.51488098     8.16987998     3.62560199    -0.55682350     2.15210182     1.66179792
O       4.22313201     3.31323401     3.84596198     0.28813335     3.85157953     2.52964146
O       1.33909197     8.30931099     3.50957898     1.53170957     1.29853845     2.12878062
O       1.48028599     3.80375502     3.63201599     0.39584590     0.61227451     1.29950493
O       3.05813300     1.23969598     3.09180101    -2.36574746    -1.01523003     1.12168531
O       0.08803901     6.03342500     3.18740402    -0.76518038    -0.43216506    -0.19935030
O       0.13824798     1.70864201     3.56096400    -0.37024722    -0.71582830    -1.92905494
O       3.05228200     7.99241198     1.37756898    -0.37468417    -1.36067046    -0.15065307
O       2.99559198     3.36209501     1.57856500    -0.50613084    -1.46709001     0.55313217
O       0.18011500     8.09316902     1.35967199    -0.90489572    -1.36624307    -0.41224338
O       5.74725901     3.39343701     1.51800400     1.39710532    -0.86383982    -0.63228772
