# total energy = -19938.34304770 eV

CRYSTAL
PRIMVEC
        5.11947203     0.00000000     0.00000000
        2.33377656     4.92356073     0.00000000
        0.00000000     0.00000000     9.41591892
PRIMCOORD
24 1
Ti      3.23855616     2.91769750     3.49323874     3.69583618    -4.26968477     1.24216879
Ti      4.21469226     2.00586316     5.92268023    -3.69583618     4.26968477    -1.24216879
Ti      5.36599735     2.00586483     1.21468314    -7.80133641     1.44353638     1.89932192
Ti      2.08725117     2.91769603     8.20123599     7.80133641    -1.44353638    -1.89932192
Ti      2.07166800     0.45591721     1.21472087     3.69599096    -4.26901525    -1.23995995
Ti      5.38158046     4.46764360     8.20119825    -3.69599096     4.26901525     1.23995995
Ti      0.92036288     0.45591540     5.92264249     7.80137420    -1.44388425     1.89752754
Ti      6.53288562     4.46764541     3.49327653    -7.80137420     1.44388425    -1.89752754
O       2.44210757     1.73366941     4.80487136    -0.36884340     0.84081198    -1.30267741
O       5.01114085     3.18989126     4.61104767     0.36884340    -0.84081198     1.30267741
O       1.76119252     1.73368930     0.09694218     1.67582329    -0.47485233    -0.87651716
O       5.69205597     3.18987146     9.31897659    -1.67582329     0.47485233     0.87651716
O       3.84425267     0.72811087     0.09691159     0.36888865    -0.84070605    -1.30252777
O       3.60899576     4.19544985     9.31900713    -0.36888865     0.84070605     1.30252777
O       4.52516777     0.72809102     4.80490189    -1.67616422     0.47373442    -0.87723733
O       2.92808061     4.19546971     4.61101708     1.67616422    -0.47373442     0.87723733
O       1.60553742     2.99478877     2.54347461     0.32114505    -1.61432660    -1.37121945
O       5.84771095     1.92877191     6.87244441    -0.32114505     1.61432660     1.37121945
O       3.65996796     1.92872609     2.16451482     2.22190472    -1.53364458    -2.65316245
O       3.79328046     2.99483458     7.25140400    -2.22190472     1.53364458     2.65316245
O       0.43864923     0.53300833     2.16448474     0.32156799    -1.61391393     1.37017944
O       7.01459914     4.39055235     7.25143407    -0.32156799     1.61391393    -1.37017944
O       2.62639227     0.53305414     6.87247438    -2.22215952     1.53388960    -2.65346172
O       4.82685615     4.39050653     2.54344454     2.22215952    -1.53388960     2.65346172
