# total energy = -4953.95206657 eV

CRYSTAL
PRIMVEC
        5.83022609     0.00000000     0.00000000
       -0.00000762     2.49866849     0.00000000
       -2.91514649    -1.24942464     6.32709615
PRIMCOORD
6 1
Ti     -0.00024912     1.87407896     1.58177398    -0.01953165    -0.01712201    35.83981299
Ti      2.91532082    -0.62483505     4.74532206     0.01953165     0.01712201   -35.83981299
O       0.00006195     0.62465181     1.03063225     0.01766760     0.01678751   -30.75148456
O       2.91500958     0.62459204     5.29646384    -0.01766760    -0.01678751    30.75148456
O      -0.00002438    -0.62469703     4.19418033    -0.00146399    -0.00000411    -1.53501318
O       2.91509584     1.87394083     2.13291576     0.00146399     0.00000411     1.53501318
