# total energy = -19075.53452675 eV

CRYSTAL
PRIMVEC
        7.60600008     0.00000000     0.00000000
        0.00000000     7.60600008     0.00000000
       -1.89786986    -1.89786986     4.85670466
PRIMCOORD
22 1
Ti      3.82750598     6.58879901     1.17235002     0.68691649    -0.12477851     1.19525591
Ti      3.79238797     2.87415501     1.16503700     0.49703479    -0.07159651    -0.60981036
Ti      0.27727602     6.71882903     1.00710601    -0.44611099    -1.45607000     0.64902433
Ti     -0.04096700     2.79377901     1.25038298    -0.56594552     1.42822005    -0.27118181
Ti      5.61620821     2.90472621     3.58999080     0.31987235     0.17841020     0.90403774
Ti      5.94681022    -0.80511577     3.64137481     0.77752965    -1.43281230    -0.74308431
Ti      1.86080322     2.79019723     3.55245679    -0.15872403    -1.30680583     1.04991551
Ti      1.48165121    -1.14701677     3.86291682    -0.79986946     1.59392514     0.03027886
O       3.88318601     4.70962302     0.64588999    -0.50495148    -0.18271474     1.72249218
O       4.13493298     0.97975300     0.68354799    -0.56839373    -0.55679754     1.68244414
O      -0.12454499     4.83264202     0.75582302     0.99397574     0.09923382    -0.04892425
O      -0.15246898     0.90642999     0.77919598     0.21869297     1.41263711     0.46058682
O       5.83460422     4.84969322     3.93584682    -0.18664648    -0.25159385     0.00335503
O       5.64064022     0.98566724     4.05143283     0.21773884    -0.13468240     0.07310523
O       2.06973224     4.64000123     4.22549182    -0.65189239     1.40456255    -2.73093834
O       1.58015624     0.89637922     4.06316379     0.32170529    -0.07432573    -0.17916610
O       3.78866521     2.80561221     3.20443982    -0.17170219    -0.11313269    -0.05400887
O      -0.03856078     2.83175521     3.22622981     0.29721758     0.22369609    -0.51630007
O       5.61013299     6.51765600     1.78491598    -0.03586947     0.84195766     0.82661949
O       5.68341002     3.03226602     1.64401602     0.26471522    -0.56025567    -0.35520678
O       2.02614000     6.73006499     2.14233901     0.60645173    -0.52333179    -2.33103884
O       1.93474003     2.98716700     1.65174101    -1.11174516    -0.39374583    -0.75745550
