# total energy = -4986.71867558 eV

CRYSTAL
PRIMVEC
        4.52669705     0.00000000     0.00000000
       -0.00000776     3.34581975     0.00000000
       -2.26337623    -1.67295364     5.13917289
PRIMCOORD
6 1
Ti     -0.00019549     2.50948802     1.28479292    -0.00392119    -0.00428295     6.79668365
Ti      2.26350832    -0.83662191     3.85437921     0.00392119     0.00428295    -6.79668365
O       0.00004721     0.83644702     0.83712913     0.00153315     0.00398881    -2.04134611
O       2.26326546     0.83641904     4.30204300    -0.00153315    -0.00398881     2.04134611
O      -0.00002026    -0.83644380     3.40671541    -0.00214147    -0.00017689    -1.54379864
O       2.26333288     2.50930974     1.73245677     0.00214147     0.00017689     1.54379864
