# total energy = -4989.89283323 eV

CRYSTAL
PRIMVEC
        2.86297423     0.00000000     0.00000000
        0.00000000     4.48585140     0.00000000
        0.00000000    -0.00005821     4.48585140
PRIMCOORD
6 1
Ti      1.43148706     2.24289654     2.24292565     0.00000000     0.00000000     0.00000000
Ti      0.00000000     0.00000000     0.00000000     0.00000000     0.00000000     0.00000000
O       1.43148706     0.87421501     0.87422635     0.00000000     0.44458581     0.44458581
O       1.43148706     3.61157807     3.61162494    -0.00000000    -0.44458581    -0.44458581
O       0.00000000     1.36865793     3.11715291    -0.00000000    -0.44510826     0.44510826
O       0.00000000     3.11713515     1.36869838     0.00000000     0.44510826    -0.44510826
