# total energy = -4988.16610892 eV

CRYSTAL
PRIMVEC
        3.21999753     0.00000000     0.00000000
        0.25210538     5.03895074     0.00000000
       -0.00000139    -0.00006548     5.04683190
PRIMCOORD
6 1
Ti      1.73605064     2.51944246     2.52341584     0.00000000     0.00000000     0.00000000
Ti      0.00000000     0.00000000     0.00000000     0.00000000     0.00000000     0.00000000
O       1.65913003     0.98200439     0.98355313     0.15676742    -0.63273561    -0.64461025
O       1.81297120     4.05688053     4.06327848    -0.15676742     0.63273561     0.64461025
O       0.07691992     1.53741152     3.50696999    -0.15725104     0.63357713    -0.64524043
O       0.17518395     3.50147362     1.53986162     0.15725104    -0.63357713     0.64524043
