# total energy = -19954.95973149 eV

CRYSTAL
PRIMVEC
        5.52765987     0.00000000     0.00000000
        0.87755903     5.81728242     0.00000000
        0.00000000     0.00000000     9.92139162
PRIMCOORD
24 1
Ti      2.52355148     3.44731612     3.68076556     0.31489598    -1.36167551     0.77049820
Ti      3.88166734     2.36996614     6.24062629    -0.31489598     1.36167551    -0.77049820
Ti      5.12476822     2.36996810     1.27989069    -0.53266464    -0.23942816     0.05392428
Ti      1.28045063     3.44731438     8.64150128     0.53266464     0.23942816    -0.05392428
Ti      2.08477209     0.53867501     1.27993048     0.31489598    -1.36167551    -0.77049820
Ti      4.32044675     5.27860741     8.64146149    -0.31489598     1.36167551     0.77049820
Ti      0.84167121     0.53867288     6.24058650     0.53266464     0.23942816     0.05392428
Ti      5.56354763     5.27860955     3.68080535    -0.53266464    -0.23942816    -0.05392428
O       2.05854268     2.04836396     5.06281025     1.09453136     1.28186355    -0.42139805
O       4.34667615     3.76891830     4.85858154    -1.09453136    -1.28186355     0.42139805
O       1.32332999     2.04838748     0.10214628    -0.49647455     0.16361555     0.51863001
O       5.08188890     3.76889483     9.81924529     0.49647455    -0.16361555    -0.51863001
O       3.90789674     0.86027702     0.10211410    -1.09453136    -1.28186355    -0.42139805
O       2.49732208     4.95700524     9.81927747     1.09453136     1.28186355     0.42139805
O       4.64310950     0.86025356     5.06284249     0.49647455    -0.16361555     0.51863001
O       1.76210928     4.95702876     4.85854936    -0.49647455     0.16361555    -0.51863001
O       0.73461380     3.53840092     2.68001544     0.15921845     0.49818459     0.58751786
O       5.67060502     2.27888128     7.24137641    -0.15921845    -0.49818459    -0.58751786
O       3.30844322     2.27882717     2.28071204     0.64845020     0.63478581     0.01259481
O       3.09677561     3.53845503     7.64067964    -0.64845020    -0.63478581    -0.01259481
O       0.29583440     0.62975965     2.28068031     0.15921845     0.49818459    -0.58751786
O       6.10938443     5.18752255     7.64071131    -0.15921845    -0.49818459     0.58751786
O       2.65799620     0.62981375     7.24140802    -0.64845020    -0.63478581     0.01259481
O       3.74722262     5.18746845     2.67998377     0.64845020     0.63478581    -0.01259481
