# total energy = -4989.71446062 eV

CRYSTAL
PRIMVEC
        2.88140330     0.00000000     0.00000000
        0.45034653     4.49220968     0.00000000
       -0.00000300    -0.00005859     4.52039501
PRIMCOORD
6 1
Ti      1.66587347     2.24607555     2.26019750     0.00000000     0.00000000     0.00000000
Ti      0.00000000     0.00000000     0.00000000     0.00000000     0.00000000     0.00000000
O       1.52846697     0.87545412     0.88095840    -0.92820278     0.51369143     0.51679013
O       1.80328002     3.61669696     3.63943656     0.92820278    -0.51369143    -0.51679013
O       0.13740527     1.37059767     3.14115682     0.92860362    -0.51577171     0.51898508
O       0.31293847     3.12155331     1.37923814    -0.92860362     0.51577171    -0.51898508
