# total energy = -19517.87332089 eV

CRYSTAL
PRIMVEC
        5.93400000     0.00000000     0.00000000
        0.00000000     9.29699974     0.00000000
        0.00000000     0.00000000     4.64899994
PRIMCOORD
23 1
Ti      4.48546502     7.01706502     2.20549801    -0.47660531     1.28433695    -0.01943935
Ti      4.46322100     2.25652700     2.34717400     1.38366333     0.16927301    -0.09068644
Ti      1.41091599     7.02026601     2.33571102     0.49288040     0.33497527    -0.47699535
Ti      1.49570500     2.34686702     2.37886801    -1.16674571     0.09560574    -0.52644771
Ti      2.93831299     4.50296099     0.10995298     0.15970670    -0.20579246     0.15519544
Ti      2.96024601     0.09108098     4.64359599     0.24281044    -0.91390539     0.11882358
Ti      5.90020299     4.72393203     0.02729999     0.38383268    -0.85743263    -0.22797003
Ti      0.01895402     9.28609901     4.62263501    -0.32378634     0.17766484    -0.55788923
O       4.45047899     5.54132302     0.89445402    -0.78032856     0.88165783     0.17489344
O       4.43933600     0.90919197     0.90763201     0.22018704    -0.06400609     0.19790534
O       1.47591202     5.56391100     0.90402001     0.94960157     0.12756070    -0.44176222
O       1.40418898     0.91313900     0.84530202     0.81352125    -0.13855809     0.32067556
O       4.41464200     8.47516102     3.60450200     0.20354171    -0.64458609     0.68218488
O       4.53556800     3.74342199     3.90658099    -1.11435226    -0.70167103    -1.93649366
O       1.53828800     8.34302202     3.68908998    -0.41522329    -0.06060838     0.45879682
O       1.47497300     3.57453200     3.80974001     0.51426890     1.84909951     0.09128037
O       2.95366098     1.48004098     3.31759999     0.59940022    -0.14478839    -0.56129311
O       5.88364900     6.00088102     3.02411802     0.42177677    -0.58077231     1.75404091
O       0.05948598     1.41709799     3.20145600    -0.63937446    -0.66071205     0.32630114
O       2.98506902     7.88001198     1.37428401    -0.25479256    -0.68270630     0.34315935
O       3.04315199     3.20361700     1.36069198    -0.33802332    -0.43237564     1.13686074
O       0.03329499     7.92232002     1.45912499    -0.27451293     0.44410193    -1.16225013
O       0.05481901     3.17367399     1.41363601    -0.60144579     0.72363880     0.24110915
