# total energy = -19961.85101443 eV

CRYSTAL
PRIMVEC
        7.60600008     0.00000000     0.00000000
        0.00000000     7.60600008     0.00000000
       -1.89786986    -1.89786986     4.85670466
PRIMCOORD
24 1
Ti      3.81293302     6.57378101     1.22411499     0.37813665     0.62169066     0.52894708
Ti      3.79062603     2.79391200     1.15727000    -0.22346443    -0.32559588     0.42949420
Ti      0.01869001     6.77479201     1.25445701    -0.41782139    -1.21564836    -0.70962911
Ti     -0.02229498     2.86612300     1.24403100     0.29412377     1.63743002    -0.54665736
Ti      5.66439425     2.90970323     3.61616179     0.06125784    -0.21411409     1.17294978
Ti      5.71018120    -0.89269080     3.64732181    -0.49540420     0.18869050    -0.50686309
Ti      1.90495825     2.76119625     3.64575883     0.28443868     0.83327839    -0.43900831
Ti      1.89419722    -1.05463475     3.64687783     0.46569200    -0.50587193    -0.20999493
O       3.79860702     4.76778701     0.82620598     0.12473840    -1.87124778    -0.60681734
O       3.81716702     0.81266502     0.78260299    -0.01924369     1.83283265    -0.57600266
O       0.00502300     4.78345103     0.75499300    -0.00654603     0.02448205    -0.04534476
O      -0.07397199     1.05918801     0.78364901     0.34799483    -1.02688639     0.62838273
O       5.60816223     4.82870521     4.07977779     0.20615216    -0.55492834     0.28102579
O       5.71940921     0.96578822     3.96242882     0.33535862     0.74389447     0.73476011
O       1.99029221     4.65988422     3.99324879    -0.01927582     0.65967821     0.18665933
O       1.82888124     0.86170424     4.02058280     0.04950121     0.67143921     0.92790968
O       3.82715122     2.69982825     3.28752383    -0.69256392     0.27786385    -0.77878744
O       3.80963624    -0.88005278     3.19285079    -0.80687443    -0.33020176     0.09436852
O       0.05665223     2.99662324     3.18053080    -0.66400795    -0.54470306     0.04771506
O      -0.03044177    -0.94609680     3.24215582     1.47130919    -0.21468282    -0.08528609
O       5.73930802     6.68862301     1.70557902    -0.15909864    -0.16348854    -0.87748312
O       5.67460102     2.86523900     1.63356901    -0.04889983     0.14957270    -0.27780883
O       1.92526802     6.67233901     1.58960501    -0.83500051    -0.05598065     0.42564603
O       1.93512400     2.91936003     1.60592198     0.36949826    -0.61750388     0.20182447
