# total energy = -4987.70176277 eV

CRYSTAL
PRIMVEC
        4.09566460     0.00000000     0.00000000
        1.20165341     3.91541794     0.00000000
       -2.64869597    -1.95773629     5.28813443
PRIMCOORD
6 1
Ti      0.90111472     2.93671356     1.32203330     0.00048851    -0.00048851     0.00000000
Ti      1.74750707    -0.97903210     3.96610034    -0.00048851     0.00048851     0.00000000
O       0.30045619     0.97884906     0.86139374    -0.00051165    -0.00102664    -1.32757650
O       2.34816541     0.97883232     4.42673990     0.00051165     0.00102664     1.32757650
O      -0.30042465    -0.97882574     3.50546078    -0.00102664    -0.00051165    -1.32757650
O       2.94904623     2.93650700     1.78267291     0.00102664     0.00051165     1.32757650
