# total energy = -19926.52466599 eV

CRYSTAL
PRIMVEC
        6.20708110     0.00000000     0.00000000
        1.62617615     6.40293515     0.00000000
        0.00000000     0.00000000    11.19849224
PRIMCOORD
24 1
Ti      3.21343891     3.79437363     4.15456096    -0.11200089    -1.96434617     0.77174441
Ti      4.61981853     2.60856194     7.04393191     0.11200089     1.96434617    -0.77174441
Ti      6.01571287     2.60856416     1.44464076    -0.09294156    -0.47620653    -0.14252093
Ti      1.81754459     3.79437167     9.75385223     0.09294156     0.47620653     0.14252093
Ti      2.40035097     0.59290610     1.44468566    -0.11200089    -1.96434617    -0.77174441
Ti      5.43290650     5.81002972     9.75380733     0.11200089     1.96434617     0.77174441
Ti      1.00445653     0.59290364     7.04388701     0.09294156     0.47620653    -0.14252093
Ti      6.82880093     5.81003211     4.15460586    -0.09294156    -0.47620653     0.14252093
O       2.53718464     2.25458245     5.71450514     1.78843020     2.01100888    -0.62318602
O       5.29607274     4.14835313     5.48398773    -1.78843020    -2.01100888     0.62318602
O       1.71160736     2.25460829     0.11529479    -0.72784924     0.09103765     0.96370742
O       6.12165016     4.14832739    11.08319777     0.72784924    -0.09103765    -0.96370742
O       4.48298477     0.94688541     0.11525845    -1.78843020    -2.01100888    -0.62318602
O       3.35027266     5.45605016    11.08323410     1.78843020     2.01100888     0.62318602
O       5.30856218     0.94685962     5.71454147     0.72784924    -0.09103765     0.96370742
O       2.52469520     5.45607603     5.48395140    -0.72784924     0.09103765    -0.96370742
O       1.21465013     3.89462827     3.02499231     0.48779064     1.57302669     1.66633463
O       6.61860724     2.50830731     8.17350056    -0.48779064    -1.57302669    -1.66633463
O       3.96609905     2.50824760     2.57428977     0.71758025     1.59057937     0.76116997
O       3.86715839     3.89468803     8.62420291    -0.71758025    -1.59057937    -0.76116997
O       0.40156216     0.69316055     2.57425400     0.48779064     1.57302669    -1.66633463
O       7.43169528     5.70977508     8.62423868    -0.48779064    -1.57302669     1.66633463
O       3.05407041     0.69322025     8.17353627    -0.71758025    -1.59057937     0.76116997
O       4.77918702     5.70971532     3.02495654     0.71758025     1.59057937    -0.76116997
