# total energy = -19517.92626869 eV

CRYSTAL
PRIMVEC
        5.93400000     0.00000000     0.00000000
        0.00000000     9.29699974     0.00000000
        0.00000000     0.00000000     4.64899994
PRIMCOORD
23 1
Ti      4.49879298     7.01167101     2.31396400     0.77282993     0.47634126    -0.48234376
Ti      4.40070897     2.29324602     2.36016700     1.74995388    -0.26576141     0.33927236
Ti      1.49744700     6.95519001     2.27366101    -0.51250050     1.07522700    -0.03688892
Ti      1.48021598     2.33213801     2.23327997    -1.77702941    -0.34070343     0.83970486
Ti      2.91575501     4.49650302     0.06323102     0.34665708    -0.37205085    -0.38832414
Ti      3.00142499     0.07300000     0.02663799    -0.80263546    -0.51178599     0.10315758
Ti      5.90870300     4.70355002     0.07863198    -0.25614162    -0.70067524    -0.45965042
Ti      5.92640298     9.25997401     4.54918701     0.89735879     0.40458354    -0.22963919
O       4.42970900     5.55595001     0.93410098    -0.55020008     0.40064975     0.14195966
O       4.44815802     0.98446500     0.87229800     0.05063944    -0.44797735     0.11287816
O       1.47893802     5.49888703     1.03394101     0.97247539    -0.02716963    -0.82032722
O       1.44777101     0.99595699     0.90421199     0.22720873    -0.84169618    -0.48554607
O       4.40563101     8.40800699     3.69061401     0.25600021    -0.43198174     0.38424971
O       4.53850599     3.73442603     3.78369402    -1.33580146     0.45110896    -0.17893136
O       1.47002101     8.49833199     3.59397598     0.14665295    -0.25003139     1.24578068
O       1.42293402     3.60560301     3.80740999     1.12245381     1.45757692     0.28265562
O       3.04257397     1.35767901     3.28647299    -0.46462371     1.08296345    -0.91289340
O       0.08195601     6.18707500     3.25275302    -0.70375516    -1.15938464     1.01444481
O       5.91756402     1.39768401     3.18663999    -0.18986884    -0.05451718     0.09083942
O       2.96782203     7.86217299     1.40427899     0.46330679    -0.27502432     0.17314329
O       2.96056701     3.21062299     1.38886401     0.29133566     0.07015926     0.58807862
O       0.06247498     7.85351200     1.43923099    -0.73545765     0.72782610    -1.22224710
O       0.00478900     3.34858199     1.50166898     0.03114096    -0.46767690    -0.09937292
