# total energy = -19943.81706317 eV

CRYSTAL
PRIMVEC
        5.56522783     0.00000000     0.00000000
        0.00002351     4.37793270     0.00000000
        0.00000000     0.00000000     8.86070003
PRIMCOORD
24 1
Ti      2.01714137     2.59435890     3.28725651    -0.54062426     2.06987431    -3.76248254
Ti      3.54811003     1.78357395     5.57344357     0.54062426    -2.06987431     3.76248254
Ti      4.79965917     1.78357547     1.14305812    -0.53853473    -2.06993267     3.77165547
Ti      0.76559223     2.59435757     7.71764206     0.53853473     2.06993267    -3.77165547
Ti      2.01712971     0.40539265     1.14309365    -0.54125238     2.06947502     3.76962893
Ti      3.54812168     3.97254035     7.71760653     0.54125238    -2.06947502    -3.76962893
Ti      0.76558057     0.40539098     5.57340804     0.53888594     2.07002292     3.76530870
Ti      4.79967082     3.97254202     3.28729204    -0.53888594    -2.07002292    -3.76530870
O       1.76143806     1.54154455     4.52154741     0.89933365    -2.29587333     2.66850397
O       3.80381339     2.83638829     4.33915268    -0.89933365     2.29587333    -2.66850397
O       1.02122501     1.54156222     0.09122589    -0.89981445    -2.29569207     2.66809259
O       4.54402648     2.83637068     8.76947394     0.89981445     2.29569207    -2.66809259
O       3.80380173     0.64742189     0.09119714    -0.89959539     2.29567150     2.66858393
O       1.76144971     3.73051095     8.76950269     0.89959539    -2.29567150    -2.66858393
O       4.54401483     0.64740428     4.52157615     0.89942776     2.29650402     2.66852171
O       1.02123657     3.73052861     4.33912393    -0.89942776    -2.29650402    -2.66852171
O       0.20221191     2.66290683     2.39349613     1.90296080    -0.73376329     0.99294550
O       5.36303953     1.71502601     6.46720395    -1.90296080     0.73376329    -0.99294550
O       2.98483182     1.71498518     2.03688208     1.90450809     0.73403197    -0.99216594
O       2.58041962     2.66294771     6.82381785    -1.90450809    -0.73403197     0.99216594
O       0.20220025     0.47394048     2.03685378     1.90256048    -0.73343882    -0.99266499
O       5.36305119     3.90399241     6.82384615    -1.90256048     0.73343882     0.99266499
O       2.58040796     0.47398132     6.46723220    -1.90449601    -0.73400780    -0.99324760
O       2.98484348     3.90395153     2.39346783     1.90449601     0.73400780     0.99324760
