# total energy = -19515.12352142 eV

CRYSTAL
PRIMVEC
        5.17600016     0.00000000     0.00000000
        0.00000000     5.50899976     0.00000000
        0.00000000     0.00000000     9.26300011
PRIMCOORD
23 1
Ti      1.87834698     3.20706401     3.48044698    -0.42592397    -0.29625727     1.15381460
Ti      3.36763999     2.32194600     5.89771199     2.48228609     0.11407552    -3.14866820
Ti      4.28504998     1.97546900     1.48269602     0.27513591     1.04968899    -1.15093033
Ti      0.86705502     3.44093099     7.80063402    -3.84646714    -0.74047104     2.77915400
Ti      2.02606099     0.04306698     1.37608803    -0.49032652     1.98398940    -0.53100885
Ti      3.19515800     5.34021698     7.88020899     0.54744155    -1.17895357     2.34620321
Ti      0.88866598     0.60854997     5.97981897    -2.40062217    -0.17056859    -2.72410512
Ti      4.53881799     4.84381200     3.18733898     0.52793869     0.77382752     2.39930731
O       1.69351198     1.88565201     4.84073399     0.96468881     0.30128224    -0.60799053
O       3.48631302     3.56273002     4.50466299     0.02877785     1.17407130    -0.53378590
O       5.03618502     2.55020698     9.22925601     0.60422798     0.62655596    -0.63597469
O       3.52594098     0.57122102     0.23803001    -0.48827067     0.36855852     1.10940957
O       1.42133099     4.80599599     9.15937598     0.51199399    -0.38917209    -0.94778148
O       4.40251199     0.86653600     4.94675200    -1.61119036    -0.11574622    -0.16532971
O       0.85777399     4.77863699     4.29601798     1.97859446    -0.70737245     0.99748607
O       0.14121502     3.38514697     2.38301301     1.03006941    -0.73353626     0.56092724
O       0.05586498     2.22297599     6.58565702    -0.70517313     0.65772957     1.48932003
O       2.37611502     1.92336801     2.26224200     1.83109561    -1.83934731    -1.39138616
O       2.47759402     3.78231397     7.15399699     2.09298314    -1.32089343    -1.95493387
O       0.23819898     0.61361002     1.95521400    -0.48284847    -0.59072120     1.12123974
O       4.88068099     4.79832001     7.34577098     0.65712690     0.96998219    -1.42215405
O       2.50613599     1.24085302     7.11513601    -2.02113492     0.10690985     0.39404716
O       3.05235597     4.26989900     2.09365598    -1.06040304    -0.04363138     0.86313996
