# total energy = -4987.51485980 eV

CRYSTAL
PRIMVEC
        3.61654440     0.00000000     0.00000000
        0.00000000     4.18834418     0.00000000
        0.00000000    -0.00006608     5.04088333
PRIMCOORD
6 1
Ti      1.80827225     2.09413888     2.52044167     0.00000000     0.00000000     0.00000000
Ti      0.00000000     0.00000000     0.00000000     0.00000000     0.00000000     0.00000000
O       1.80827225     0.81623365     0.98239390     0.00000000     0.30075079     0.40364252
O       1.80827225     3.37204406     4.05848938     0.00000000    -0.30075079    -0.40364252
O       0.00000000     1.27787853     3.50283668    -0.00000000    -0.30110869     0.40366849
O       0.00000000     2.91039924     1.53804665    -0.00000000     0.30110869    -0.40366849
