# total energy = -19961.86140510 eV

CRYSTAL
PRIMVEC
        7.60600008     0.00000000     0.00000000
        0.00000000     7.60600008     0.00000000
       -1.89786986    -1.89786986     4.85670466
PRIMCOORD
24 1
Ti      3.76660302     6.68051897     1.11368400     0.85174406    -0.16380633     1.16136104
Ti      3.86060199     2.87525501     1.17199902    -0.48553090     0.16547549     0.31014638
Ti      0.00390702     6.64182998     1.22236600    -0.87625439     0.15564127    -0.25713021
Ti      0.01483702     2.84531897     1.22976798    -0.14466086    -0.02974408     1.12818429
Ti      5.73109820     2.73914623     3.68024579    -0.48318065     1.88597712     0.09322824
Ti      5.70781822    -0.97700175     3.67288779    -0.63819638    -1.13739038    -0.48751991
Ti      1.92216921     2.86599425     3.60559380     0.24316500     0.29709751    -0.05547157
Ti      1.85908721    -0.91201979     3.61250480     0.55411845    -0.28665471    -0.34057282
O       3.79161802     4.78470999     0.79468199     0.04888312    -0.11047572    -0.33177168
O       3.76930801     0.97554599     0.71314202     0.14174317     0.25529907     0.20334220
O      -0.08991399     4.81872101     0.87458802     0.19900757    -1.91399855    -0.58040953
O      -0.16279498     0.93465403     0.84218797     0.49364865     0.52433195    -0.10476838
O       5.73341621     4.69082421     4.10484179    -0.20421534     0.71255579    -0.09706047
O       5.83996621     0.92945825     4.22078379     0.05368234    -0.00268346    -1.42278063
O       1.97793920     4.78435825     3.96353681    -0.15968459    -0.40137583     0.55686516
O       1.73386323     1.00579423     4.01739980     0.45135604    -0.56399766     0.35197053
O       3.82411025     2.76451123     3.28728379    -0.00396104    -0.15807611    -0.53274820
O       3.82317720    -0.94906776     3.13674482    -0.62066350     0.31955559     0.63909549
O      -0.04605678     2.88037421     3.21967780     0.56927793    -0.11599999     0.03802534
O      -0.02679076    -1.14718579     3.24607480     0.43397229     0.66316566     0.10991779
O       5.68900501     6.75003598     1.70324498    -0.14418495    -0.11141494    -0.36305481
O       5.67698300     2.90478998     1.61830801     0.00126678    -0.29417468     0.17543543
O       1.88567101     6.68337701     1.62637802     0.19080009     0.31168775    -0.19498019
O       1.93480300     2.86376900     1.65214800    -0.47213313    -0.00099476     0.00069625
