# total energy = -19958.91630454 eV

CRYSTAL
PRIMVEC
        7.60600008     0.00000000     0.00000000
        0.00000000     7.60600008     0.00000000
       -1.89786986    -1.89786986     4.85670466
PRIMCOORD
24 1
Ti      3.87695701     6.62954598     1.10398000     1.62393841     0.91627800    -1.06876890
Ti      3.71295000     2.75109902     1.24725898     1.08239010    -0.80542408    -1.65619677
Ti      0.12961800     6.78367901     1.25270702    -1.61321999    -1.70324618     0.44236232
Ti     -0.11186601     2.76397797     1.25576301    -0.65688908     1.48564104     2.56210705
Ti      5.58023723     2.89587022     3.75566582     3.90011143    -0.19584717     1.17910295
Ti      5.65588725    -0.85282179     3.63304784     2.34751010    -0.33675010     0.34976555
Ti      2.02033222     2.81279622     3.68658480    -3.10537466    -1.52786782    -0.31964635
Ti      2.01806121    -0.96702179     3.49027581    -1.54922598     1.35931318     1.74463272
O       3.86260699     4.54256600     0.79345800    -0.58666554     3.23218409     0.13814131
O       4.01290000     0.91188199     0.57414298    -0.29188022    -0.50936015     0.53607238
O       7.25391099     4.69651202     0.86131398     1.62888110     0.63110527    -0.09474981
O      -0.13199501     0.89814900     0.81936303    -0.24378875     1.32796499    -0.83991287
O       5.82368120     4.73727322     4.26066280    -0.21681890     0.52499606    -2.74988687
O       5.60336021     0.92841624     4.28551883     0.10147917    -0.80936172    -2.80903100
O       1.70374124     4.71845822     3.95662581     0.96275791    -0.20883048    -0.23994135
O       1.99131722     0.91747725     4.08373979    -0.19036095    -0.48148475    -0.65780156
O       3.83401120     2.72322122     3.32573180    -2.02575493     0.46515387    -1.31269058
O       3.91370122    -0.77109179     2.98378381    -1.04299718    -0.96651892     1.31045423
O      -0.10564077     2.65786222     3.38707281     0.17447744     0.43434382    -0.88063761
O      -0.02294677    -0.71380476     3.23097483     0.16935169    -0.87238720    -0.06620310
O       5.76554399     6.71491401     1.40846298    -1.80494748    -0.45704358     1.21526964
O       5.62605298     2.83265402     1.55728599    -0.54616859    -0.58180049     1.61130478
O       1.96686098    -0.53377802     1.58148198     0.58619245    -1.47966836     0.18990252
O       1.81516200     2.63417799     1.56364802     1.29700247     0.55861094     1.41635184
