# total energy = -19952.36096806 eV

CRYSTAL
PRIMVEC
        5.00739316     0.00000000     0.00000000
        1.31187320     5.16539306     0.00000000
        0.00000000     0.00000000     9.03407777
PRIMCOORD
24 1
Ti      2.59235408     3.06100730     3.35157859     1.92584363    -1.64740822     0.83267469
Ti      3.72691242     2.10438611     5.68249969    -1.92584363     1.64740822    -0.83267469
Ti      4.85301207     2.10438789     1.16542448    -3.43975935    -0.23097977     1.51887950
Ti      1.46625446     3.06100571     7.86865390     3.43975935     0.23097977    -1.51887950
Ti      1.93641759     0.47831080     1.16546070     1.92575210    -1.64716217    -0.83258316
Ti      4.38284894     4.68708280     7.86861768    -1.92575210     1.64716217     0.83258316
Ti      0.81031787     0.47830882     5.68246347     3.43998972     0.23091266     1.51851774
Ti      5.50894865     4.68708473     3.35161481    -3.43998972    -0.23091266    -1.51851774
O       2.04680441     1.81882282     4.61002095    -0.54612720     0.15392300    -0.78585257
O       4.27246204     3.34657059     4.42405733     0.54612720    -0.15392300     0.78585257
O       1.38079249     1.81884367     0.09301092     0.94113543    -0.84063200     0.02512766
O       4.93847408     3.34654983     8.94106711    -0.94113543     0.84063200    -0.02512766
O       3.61652553     0.76387394     0.09298161     0.54611100    -0.15393766    -0.78594385
O       2.70274097     4.40151946     8.94109642    -0.54611100     0.15393766     0.78594385
O       4.28253756     0.76385314     4.61005026    -0.94090558     0.84080555     0.02509166
O       2.03672890     4.40154032     4.42402802     0.94090558    -0.84080555    -0.02509166
O       0.97988582     3.14188499     2.44032993    -0.36756453    -0.74098064    -1.06987807
O       5.33938063     2.02350842     6.59374835     0.36756453     0.74098064     1.06987807
O       3.19954209     2.02346025     2.07673796     1.15795099    -1.20850584    -1.49660474
O       3.11972441     3.14193320     6.95734016    -1.15795099     1.20850584     1.49660474
O       0.32394931     0.55918834     2.07670911    -0.36740049    -0.74086648     1.07033342
O       5.99531720     4.60620511     6.95736902     0.36740049     0.74086648    -1.07033342
O       2.46378790     0.55923651     6.59377716    -1.15786768     1.20815282    -1.49697421
O       3.85547860     4.60615689     2.44030107     1.15786768    -1.20815282     1.49697421
