# total energy = -4982.91341272 eV

CRYSTAL
PRIMVEC
        3.49045516     0.00000000     0.00000000
        0.00000000     2.94485690     0.00000000
        0.00000000    -0.00006652     4.62300899
PRIMCOORD
6 1
Ti      1.74522748     1.47239514     2.31150464     0.00000000     0.00000000     0.00000000
Ti      0.00000000     0.00000000     0.00000000     0.00000000     0.00000000     0.00000000
O       1.74522748     0.57389626     0.90095641     0.00000000    -3.32994390    -3.32037039
O       1.74522748     2.37089407     3.72205282     0.00000000     3.32994390     3.32037039
O       0.00000000     0.89847237     3.21246193     0.00000000     3.32965311    -3.32112501
O       0.00000000     2.04631791     1.41054735     0.00000000    -3.32965311     3.32112501
