# total energy = -19074.55690102 eV

CRYSTAL
PRIMVEC
        5.17600016     0.00000000     0.00000000
        0.00000000     5.50899976     0.00000000
        0.00000000     0.00000000     9.26300011
PRIMCOORD
22 1
Ti      1.90561400     3.48940500     3.38582300     0.09806320    -0.07002582    -0.07825798
Ti      3.56568198     2.18527100     5.92271900     0.61840685     0.70118894    -0.63610864
Ti      4.38828701     2.22564400     1.32673399     0.23647987     0.48618910    -2.58162482
Ti      0.66935699     3.27651001     7.98391699     0.08448854    -1.39686827     2.42701995
Ti      1.81867098     0.48248598     1.23897000    -0.30472366     2.29366758    -1.61555507
Ti      3.16549301     5.06820199     8.02467301     0.67582629    -0.65927429     1.34556523
Ti      0.71205599     0.09569700     6.05925800     0.14533397     1.52175965    -1.69933990
Ti      4.42469901     4.95137701     3.30773702     0.42376424     0.86110082     1.73544977
O       3.61271700     3.37998601     4.40821001    -0.52620577    -0.02401231     0.87647499
O       0.88954902     1.93134302     0.15573501    -0.17830864     0.25127580    -0.54092380
O       4.33969198     3.63489599     9.07094999    -1.19576190     0.72008424    -0.62498964
O       3.49022401     0.89055599     0.14233101    -0.41350862    -0.25586805    -0.16372688
O       1.68167402     4.68835898     9.19509100    -0.39697333    -0.44672625    -0.96448106
O       4.34841398     0.71964799     4.85358998    -0.57758080    -0.27167392     0.16068372
O       1.13802801     5.09313402     4.25845401    -0.03622763    -1.65910469     1.62827921
O       0.13672601     3.61567701     2.37775801     0.53770657    -0.80909098     0.22729357
O       5.16017998     1.81335602     6.84724802     0.03464151     0.07395755     0.10543095
O       2.50681402     2.19322898     2.16570198     1.41494647    -0.54992266     0.23751217
O       2.27005599     3.57129301     6.95280898     0.10723304     0.28239388    -0.66577970
O       0.14717499     0.83888702     2.14179602    -0.68423611    -0.95294220     1.15154611
O       2.47732102     0.81940801     6.68597199    -0.95104473    -0.83576927     0.20246982
O       2.74088097     4.80402401     2.40454502     0.88768064     0.73966115    -0.52693802
