# total energy = -4989.12599513 eV

CRYSTAL
PRIMVEC
        2.83684552     0.00000000     0.00000000
        0.44338241     4.42274252     0.00000000
       -0.00000295    -0.00005768     4.45049199
PRIMCOORD
6 1
Ti      1.64011254     2.21134242     2.22524600     0.00000000     0.00000000     0.00000000
Ti      0.00000000     0.00000000     0.00000000     0.00000000     0.00000000     0.00000000
O       1.50483089     0.86191617     0.86733533    -1.19737604     0.75696108     0.77261370
O       1.77539424     3.56076866     3.58315661     1.19737604    -0.75696108    -0.77261370
O       0.13528044     1.34940286     3.09258223     1.19707291    -0.75716599     0.77279162
O       0.30809921     3.07328187     1.35790971    -1.19707291     0.75716599    -0.77279162
