# total energy = -19073.10191311 eV

CRYSTAL
PRIMVEC
        5.17600016     0.00000000     0.00000000
        0.00000000     5.50899976     0.00000000
        0.00000000     0.00000000     9.26300011
PRIMCOORD
22 1
Ti      1.55274798     3.21553498     3.47065001     1.49333944     1.42886437    -0.61462321
Ti      3.69757502     2.09224598     5.89209001    -0.81158187     1.04101589    -1.99491788
Ti      4.36516498     2.26254602     1.27195102     0.38308989     0.36464761    -0.52146851
Ti      0.95826602     3.22968697     7.96819302    -0.92083965    -1.63970931     2.19764404
Ti      1.78230200     0.63684900     1.31801802    -0.33959066    -1.76219799    -0.69346329
Ti      3.22045902     5.11184398     8.16229201    -0.28810764    -0.28268133     1.02350950
Ti      1.42904697     0.22859298     5.83988001    -0.40821471     0.09810485    -0.98620946
Ti      4.19698102     5.05902198     3.38753002    -0.94556493    -1.43266009     0.41985796
O       3.45783899     3.39080002     4.25113798    -0.68118241    -0.83762355     2.38931960
O       1.09633202     1.91752203     0.09238599    -1.82726750     0.34069444    -0.93227824
O       4.42947198     3.73243701     8.57484499     0.15885464    -0.55074876    -0.09920631
O       3.50375200     0.78260399     0.38894401     0.69860293     0.10126062    -1.13097831
O       1.82159902     4.55198498     9.16569198    -0.99378856     0.12373824     0.49613748
O       3.34569602     0.72687501     4.69620398     0.07147361    -0.66806798     0.03854445
O       0.61270402     4.56374700     4.58061500    -0.03925742     0.50026256     0.69329591
O       0.05197600     3.68234202     2.33926000    -0.88258034    -0.78126161    -1.11021278
O       0.23558400     1.61066902     6.45820002    -0.43643412     0.38014186     0.03846989
O       2.47012500     2.04107401     2.18688600     1.77961980     1.27251090     1.18084898
O       2.05275798     4.10229899     6.82444799     1.78214745    -0.08278904    -2.02691836
O       0.06812300     0.95766900     2.22457400    -0.28114561    -0.79272385     1.74129517
O       2.58399601     1.06937298     7.10593102     1.53946556     1.59653970     0.62857248
O       2.37993298     4.67970699     2.58923798     0.94896265     1.58268248    -0.73721911
