# total energy = -39034.16083469 eV

CRYSTAL
PRIMVEC
        5.93200024     0.00000000     0.00000000
        0.00000000     9.29399984     0.00000000
        0.00000000     0.00000000     9.29399984
PRIMCOORD
46 1
Ti      4.44703500     7.04970202     6.93459999    -0.72366039    -0.98575412    -0.50047262
Ti      4.41427501     6.89466801     2.39356401    -0.44762768     0.78131226    -0.98712555
Ti      4.42061599     2.21320299     7.02100199    -0.11307510     0.06423467    -0.40871582
Ti      4.53786097     2.50337601     2.16967001     0.26703025    -0.37224240     0.01220297
Ti      1.45186499     6.97606002     7.08135402     0.78253739    -0.31232642    -0.46120131
Ti      1.40054501     6.99694199     2.29057198     0.43905897     0.71006028    -0.82241702
Ti      1.50565099     2.42871101     6.88959701     0.04701418    -0.66319265    -0.31596890
Ti      1.53377898     2.20972100     2.55516802    -0.07909796     0.26557294    -1.26021794
Ti      2.89054998     4.81520002     4.65881698     1.01786207     0.04506220     1.10438615
Ti      2.96416599     4.71744902     9.12725000     0.10003935     0.88849593    -0.02715472
Ti      3.00538398     9.24891298     4.64070398    -0.38035320    -0.15598194     0.45711532
Ti      3.03135499     9.19934802     9.28262602    -1.58836462     0.56370095     0.38881111
Ti      5.91979900     4.63864998     4.58444498    -0.85894958     0.39440866     1.62689261
Ti      5.92746398     4.73692798     9.28189300     0.25210087     0.07059558     0.07175514
Ti      0.02045302     9.10423698     4.76288101     0.44763797     0.81122397    -0.24597136
Ti      5.90217899     0.01522797     9.23469701     1.68071739     0.54975528     0.69519801
O       4.35756198     5.62191603     5.64727902    -0.18679586    -0.31388733    -1.21770191
O       4.39109298     5.56436202     0.86840199     0.88138529    -0.48435256     0.91930625
O       4.46532099     0.66926899     5.66099503     0.13874063     1.20542540    -0.51745553
O       4.48720897     1.05037498     0.82230102     0.16120334     0.21719119     0.47297157
O       1.27154901     5.59991601     5.71778702     1.22589061    -0.85741669    -1.25156720
O       1.58473801     5.69381698     0.81230999    -0.88530571    -0.54843065    -0.14970228
O       1.39107300     0.86277599     5.62389901     0.38635082     0.15975144    -1.57233867
O       1.52630901     0.84230498     0.81323198    -0.60848341     0.74762154     1.27902377
O       4.46851002     8.44712103     8.18344899     0.21923779     0.56162710     1.83577759
O       4.46593700     8.32640199     3.73801300    -0.25670803    -0.01404928     0.05031574
O       4.48913201     3.84547699     8.29941199     0.03495802    -1.38015635     0.90719532
O       4.40578601     3.96805302     3.74291101    -0.08885222    -1.53920922    -1.41927955
O       1.48102102     8.07348299     8.56044597    -0.28832542     1.64631782     0.02207473
O       1.57027200     8.06007697     3.95101600    -0.36965587     1.83794709    -1.06056194
O       1.58362298     3.87183701     8.26363299    -1.19218601    -1.21190252    -0.08410313
O       1.47240897     3.73313499     4.00842099    -0.24393556    -1.71496013    -1.85970018
O       3.00681699     6.01109599     7.87957700     0.02411361     1.28373994    -0.97819044
O       2.73233799     5.86379601     3.07279698     1.51064682     0.63748984     0.75210092
O       2.84600198     1.28679799     7.91431198     0.33223165     1.48952186    -1.09395364
O       3.20495101     1.48502398     3.13835903    -0.46035413     0.21637589     0.30376567
O       5.79315598     6.05038100     7.85550001     0.63389441     0.29632386     0.55727448
O       0.00194600     6.03664499     3.19188499    -0.29065715    -0.27664592     0.15393175
O       5.88984000     1.41428801     7.88952802     0.80602109    -0.24691727     0.29860340
O       2.91352299     7.99512100     6.12521402    -0.37242726    -1.06415942     0.36979599
O       2.99255101     8.03998898     1.48032197     0.18680768    -1.31243475     0.72895867
O       3.08733999     3.10156501     5.88136502    -0.99833993    -0.14645035     1.54631986
O       0.03403298     7.87530299     6.01386999     0.01973297    -1.28361756     1.58976715
O       5.80678902     7.92992398     1.44733597    -0.04611198    -0.51321655     0.27294584
O       5.84952903     3.09967400     6.08620302     0.28459834     0.69612850    -0.57354391
O       0.41292399     3.34929400     1.47883901    -1.40054443    -0.74257961     0.39085359
