# total energy = -19072.60067321 eV

CRYSTAL
PRIMVEC
        5.93400000     0.00000000     0.00000000
        0.00000000     9.29699974     0.00000000
        0.00000000     0.00000000     4.64899994
PRIMCOORD
22 1
Ti      4.46052500     6.93065302     2.14943401    -2.31240399     0.40035896     0.28386661
Ti      4.39146298     2.40074198     2.22371002     0.41987956    -2.05102786     1.45718740
Ti      1.53788699     6.95010801     2.70804902     1.20050559     2.57951857     0.02194874
Ti      1.65082601     2.57585001     2.03245499    -2.07640389    -0.84384126     1.60051977
Ti      3.04319401     4.61268399     4.61227600    -0.18156572     1.44987209     0.21701533
Ti      2.89633902     0.05987598     0.13109700     1.43154089    -0.61672817    -2.02827102
Ti      5.92708900     4.62315302     4.29207000     0.31555238    -2.08890896     1.90399027
Ti      5.83545497     9.10947102     0.35128400    -0.46895731    -0.38912247    -0.83833755
O       4.55254400     5.62544701     0.61862498     0.10397545     0.93761277     2.37032531
O       4.25633000     0.52250898     1.30322498     2.29124689     2.26360186    -0.43989740
O       1.50141498     0.86691802     0.92637600    -2.39679714     2.10974931     1.08659334
O       4.39584599     8.30674200     3.81548100     1.14544514     1.03571247     1.15230587
O       4.36328201     3.85175399     3.58405502     0.60305478    -1.94011814    -1.44120901
O       1.47449801     8.44091801     3.96933098    -1.47102765    -1.78123393    -1.03756727
O       1.73510801     3.72863101     3.60183903    -2.07244747     0.49284235    -0.72553756
O       3.02432800     6.13152203     3.28789700     0.36828881    -1.51202853     0.31321447
O       2.82070900     1.46649902     3.14665901     0.30450640     0.29521906     0.63036582
O       0.02906099     6.05867099     3.22656202    -0.82984185    -0.32075758    -0.71194747
O       2.82210402     7.86745101     1.63587701     0.42681717    -0.67323976    -1.33702993
O       3.12701701     3.05637698     1.13109002     0.15912641     1.45778904    -1.18146734
O       5.93294599     7.95770901     1.74687300     1.12198767    -0.08571110    -1.04156482
O       5.72332200     3.30112400     1.32261900     1.91751788    -0.71955820    -0.25450331
