# total energy = -19516.69955283 eV

CRYSTAL
PRIMVEC
        5.17600016     0.00000000     0.00000000
        0.00000000     5.50899976     0.00000000
        0.00000000     0.00000000     9.26300011
PRIMCOORD
23 1
Ti      1.92779701     3.18183999     3.34946101    -0.12989244    -1.29158335     2.71527184
Ti      3.26700799     2.22325201     6.03277797    -0.24077927     0.71995080    -3.24438989
Ti      4.46751501     2.18630401     1.47030100    -0.39103665    -2.46024016    -1.93917455
Ti      0.85881499     3.36932299     7.65173502     0.60057393     0.45669623     1.44334483
Ti      2.02031301     0.25724502     1.40302701    -0.10603979     1.11038093    -2.56804219
Ti      3.21897299     5.21114398     7.92268198    -0.36679243     1.69862384     0.57432784
Ti      0.73382200     0.57941199     5.85834798    -0.88976169    -0.47818577    -2.98144179
Ti      4.52868202     4.86249301     3.43155301     0.42685085     1.05731180     2.98321662
O       1.48159401     1.86339698     4.69552902     0.19562040    -0.11758482     0.69611667
O       3.39803302     3.32091502     4.44455099     1.75288365     1.09394078    -0.42407148
O       0.10197500     2.65763102     9.23103600     0.62918440     0.85549273    -0.61307643
O       3.34888098     0.94153899     0.15845001     0.40841989    -0.37684673    -0.39476398
O       1.99824997     4.51228700     9.07598098    -1.10966925    -0.93484240     0.41247503
O       4.12132498     0.66377602     4.90668498     0.31559943    -0.56226293    -0.43312923
O       1.04250199     4.74482802     4.44684699    -0.99226904    -0.27451010    -0.10794729
O       0.12769899     3.24764598     2.62054898     0.67162793     1.84107510     0.46702126
O       4.95949300     2.11094499     6.76578001    -0.44183807     0.18629758     0.02959367
O       2.79655598     1.77715601     2.23760298    -1.23892946     1.17264408     1.18263719
O       2.55063699     3.94400900     6.65225398    -0.78078750    -1.34364847     0.93991416
O       0.31687203     0.72883302     2.11625200    -0.62495751    -1.31343594    -0.17577893
O       4.95523403     4.83651401     7.25578402     0.88494884    -0.12702848     0.23903684
O       2.14424199     1.10234802     7.08969899     0.19621741    -0.09685709     0.65414417
O       2.87985499     4.53649898     2.30797202     1.23082636    -0.81538736     0.54471592
