# total energy = -19517.30699079 eV

CRYSTAL
PRIMVEC
        5.93400000     0.00000000     0.00000000
        0.00000000     9.29699974     0.00000000
        0.00000000     0.00000000     4.64899994
PRIMCOORD
23 1
Ti      4.40935599     6.95824802     2.18954501    -0.03981740     0.85486435    -0.95816617
Ti      4.52465800     2.26393701     2.39640500     0.90387834     0.89759790    -0.19355400
Ti      1.39590000     6.98666198     2.36547898    -0.05390191     1.13671932    -0.88351159
Ti      1.52120600     2.37088998     2.37610301    -0.93161644     0.32065602    -0.86424014
Ti      2.88198900     4.50495700     0.13498401     1.91563814    -0.26054129     0.79615859
Ti      2.88271900     0.24588200     4.64175498     1.65371128    -2.09691770     0.49159356
Ti      0.03625901     4.62272799     4.64800700    -2.09826341    -0.03228638     0.14077618
Ti      5.89500303     9.25351900     4.53354400    -0.42482559    -0.38482307     0.33845937
O       4.32611398     5.54416502     0.95639400     0.07717863    -0.34136498    -0.87010508
O       4.60686003     0.95560399     0.89728501    -0.78697460    -0.72581729    -0.15247573
O       1.46354399     5.51899899     0.89794399     0.35175198     0.43217586     0.01054770
O       1.57709198     1.07812599     0.80717099    -0.78110657    -0.00987690     1.11286616
O       4.63235002     8.48010702     3.50466901    -0.57897819    -0.07896761     0.94092023
O       4.46836503     3.52923601     3.90177600    -0.24429191     1.37601738    -0.42140808
O       1.67320698     8.37856998     3.74020200    -0.96366756    -0.16914985    -0.46109024
O       1.39895298     3.65108500     3.84732700     1.15069070     0.42522411    -0.64162289
O       2.98892101     1.49058399     3.23901298    -0.02847781    -0.78481539    -0.01648103
O       5.88014600     6.01429201     3.10533598     0.26699296    -0.64810053     1.33084154
O       0.09392002     1.48439801     3.30681498     0.49149586    -0.56708709    -0.71902521
O       2.88686002     7.80386702     1.29429400     0.48654546    -0.13277336     1.26835677
O       3.11374397     3.24374801     1.49982501    -1.12743918     0.21319441    -0.05741224
O       5.89244800     7.77969299     1.34082598     0.77224526     0.85790622    -0.67777338
O       0.05476900     3.30249002     1.47481901    -0.01076778    -0.28183389     0.48634568
