# total energy = -19960.38218272 eV

CRYSTAL
PRIMVEC
        5.93400000     0.00000000     0.00000000
        0.00000000     9.29699974     0.00000000
        0.00000000     0.00000000     4.64899994
PRIMCOORD
24 1
Ti      4.44098502     6.83222499     2.25554601    -2.06829154     1.27835322     1.62210393
Ti      4.49493502     2.45066599     2.41812799     1.24707960    -0.91175131    -1.44803787
Ti      1.40874800     7.01350402     2.19425702     2.00408490     0.04242373     0.61692795
Ti      1.52517398     2.24639002     2.37573502    -1.35841123     0.19572633    -0.35456811
Ti      2.99766101     4.60493297     0.01743300    -2.04971840     0.36732105    -0.24533990
Ti      2.92944800     9.27367102     4.57687600     1.97799179    -0.25172215     0.94631441
Ti      5.92870902     4.73820002     4.63340599     1.65123608    -0.70812090     0.32254270
Ti      0.01519300     9.20240502     0.05542200    -1.94995133     1.45150783    -1.03428859
O       4.42786000     5.64726198     0.85582799     0.29641411    -0.24629095    -0.14382294
O       4.45177199     0.90174100     0.85655900    -0.17819757     0.50476713     0.53446235
O       1.45670601     5.62320600     0.80596801     0.10527874     0.71154612     0.85829292
O       1.42339901     0.90654402     0.86872299     1.17702961     0.56792039     0.76330785
O       4.53541300     8.36427002     3.76249301    -0.94662603    -0.11576371    -0.19445389
O       4.45499298     3.83518899     3.85824498     0.12688604    -1.84786127    -1.36412243
O       1.54134998     8.41658199     3.66384299    -0.65743852    -0.67107489     0.24515632
O       1.42721999     3.65066499     3.89427402     0.57897794     0.34952695    -0.64321877
O       3.00600698     5.98272802     3.18301301    -0.36829318     0.23604921    -0.10161775
O       2.92113801     1.38201698     3.29370202     0.60099867     1.17061290    -1.20378323
O       5.88153298     6.06596998     3.23741698     0.80954041     0.08864036    -0.64171802
O       5.92979601     1.40322101     3.19713400     0.06903183     0.84490826    -0.34114206
O       2.95780401     7.90107001     1.51369200    -0.39953595    -0.11633269    -0.70542098
O       3.03413698     3.46535299     1.58054201    -0.29688796    -1.42823317     0.19677405
O       5.90728502     7.93843399     1.39980702     0.41496078    -1.33870269     0.99689394
O       0.02198102     3.26188498     1.40134502    -0.78615931    -0.17344951     1.31875761
