# total energy = -39032.98853876 eV

CRYSTAL
PRIMVEC
        5.93200024     0.00000000     0.00000000
        0.00000000     9.29399984     0.00000000
        0.00000000     0.00000000     9.29399984
PRIMCOORD
46 1
Ti      4.47144902     7.11267401     7.07668302    -0.36389248    -1.59934812    -0.22021584
Ti      4.52531699     6.89899102     2.33691601    -0.48088517    -0.49999593     0.38328555
Ti      4.49137598     2.13778602     7.23935301    -0.80155868     1.87759249    -1.71784619
Ti      4.30136298     2.56722702     1.97800799     0.25633959    -0.93618015     1.14469180
Ti      1.50402901     6.85298498     6.92085398    -1.65529277     0.90732979    -0.95383258
Ti      1.50237702     7.21531498     2.37526199    -0.04871779    -1.83911823    -0.43482744
Ti      1.51349303     2.39462802     6.78520600    -0.13742809     1.38618147    -0.56446148
Ti      1.23461402     2.00598501     2.59862601     0.97210156     0.96213261    -0.32996599
Ti      3.10132699     4.69088999     4.69883997    -0.09475316     0.63440374     1.24678649
Ti      2.84662699     4.89158099     8.95310301     0.48469452    -0.98107497     2.66566213
Ti      2.97308199     0.08122400     4.70121000     0.48922558    -0.56271416    -0.96546579
Ti      3.00181801     0.02555201     0.04233497    -1.93783834    -0.78958710    -0.83098136
Ti      0.01110399     4.53575898     4.40668598     1.53473344     0.81759697     1.85925949
Ti      0.02492499     4.69132201     0.02663899    -0.16751000     0.38668352     0.62676808
Ti      5.84972599     9.16421298     4.91464200    -0.25387596    -0.81018165    -0.70193174
Ti      0.04441999     0.03866402     0.00801000     1.63228499    -1.33604880    -0.16439588
O       4.67997100     5.55848799     5.74618500    -1.89291910    -0.74926679    -2.25542961
O       4.32716598     5.61361398     0.92226001    -0.19249805    -1.17505217    -0.79304189
O       4.42855100     0.81168599     5.65955498    -0.48621430     0.58843317    -0.27725964
O       4.44724800     0.93796101     0.73859401     0.49877440     2.35868052     1.38129020
O       1.24858398     5.41478499     5.59876701     2.13117689     0.87109265    -0.20867955
O       1.48497799     5.82540600     0.69978998     1.34107325    -2.14323434    -0.23124022
O       1.45903799     1.02292301     5.44776797     0.07874675    -0.47871439    -0.97850438
O       1.59640002     0.82579898     1.07120398    -1.40325000     0.17969344    -0.97166267
O       4.43895902     8.36257999     8.56443602     0.16232280    -0.92099083    -1.10453733
O       4.52738999     8.25076901     3.92597401     0.04203164     1.16890004    -0.39519644
O       4.35810798     3.53326099     8.53439198     0.11543640     0.83481925     0.91332226
O       4.43990497     3.77137398     3.70870198    -1.33604906    -0.98333060    -1.55107975
O       1.49858399     8.44871602     8.22391200    -0.13967420    -0.14629711     1.80119470
O       1.25598903     8.34040799     3.78847698     0.89990855     1.29724338     0.46785507
O       1.50296700     3.72055603     8.34907602    -0.20813705     0.22697219     0.36261798
O       1.54313399     3.48259200     3.66952302     0.08135025     1.02297265     0.84567574
O       3.01546999     6.06976201     7.63660198    -0.41437071    -1.04389758     0.71161863
O       3.11375498     6.13897898     3.41212798    -0.67297082    -0.51521944    -0.31038189
O       2.86021198     1.29122699     7.75781701     0.69917140     0.44371138     0.63739059
O       3.07158897     1.33928301     3.04167998     0.17032279     0.52680432     0.66837471
O       0.03003499     6.04609700     8.03933100    -0.84543534     0.63750732    -1.04115910
O       0.16184399     5.90248501     2.94765101    -0.61944120    -0.15461746     1.41741216
O       0.09228999     1.32040800     7.79514899     0.39309225     0.19315317     0.59523091
O       2.83519798     7.98015200     6.05637801     0.50804092    -0.59598399    -0.06014635
O       3.01205399     7.92727899     1.68356700     0.99409092     1.16647626    -1.86862525
O       3.17480701     3.30637799     6.02001798    -1.56697689    -1.15327235     1.14784938
O       5.81396202     7.80252799     6.22032199     2.55246207     1.86164599    -1.56853986
O       0.06166201     7.83754000     1.31485402    -0.55401586     1.01957211     0.65777894
O       5.87300899     3.12001398     5.93808599     0.69406518    -0.74094875     1.28955938
O       0.10131400     3.33395199     1.55011701    -0.45774138    -1.21452402    -0.32421623
