# total energy = -4988.45226586 eV

CRYSTAL
PRIMVEC
        3.56038553     0.00000000     0.00000000
        0.35514242     3.54262882     0.00000000
       -1.95779555    -1.77134298     4.54954888
PRIMCOORD
6 1
Ti      0.26622038     2.65710638     1.13738700     0.00203786    -0.00221115     0.00054790
Ti      1.69151170    -0.88582082     3.41216134    -0.00203786     0.00221115    -0.00054790
O       0.08882314     0.88565160     0.74108426     0.00027794     0.00157969     1.22411784
O       1.86890884     0.88563386     3.80846417    -0.00027794    -0.00157969    -1.22411784
O      -0.08880343    -0.88563377     3.01585860     0.00158149     0.00027434     1.22803852
O       2.04653536     2.65691919     1.53368983    -0.00158149    -0.00027434    -1.22803852
