# total energy = -19518.85466928 eV

CRYSTAL
PRIMVEC
        7.60600008     0.00000000     0.00000000
        0.00000000     7.60600008     0.00000000
       -1.89786986    -1.89786986     4.85670466
PRIMCOORD
23 1
Ti      3.80738502     6.57437703     1.19853202    -0.30379626     0.93644446     0.56544210
Ti      3.79416903     2.87731599     1.10584498     0.51901002    -0.87668094     1.40852411
Ti      0.00287301     6.64421800     1.23745301     0.19886410     0.28858047    -0.26110436
Ti     -0.01446802     2.88162498     1.15201702    -0.21392718    -0.38927879     0.26446685
Ti      5.72058922     2.85629522     3.65059980    -1.92272771     0.50084543    -0.49797119
Ti      5.69423222    -0.92789675     3.62243884    -0.26473399    -0.31197932     0.69490182
Ti      1.89086123     2.89131723     3.61700482     1.89568921    -0.30928814    -0.85663481
Ti      1.89469221    -1.01587877     3.68884481     0.27489320     0.41472064    -0.12524002
O       3.98742101     4.75303900     0.65053601    -0.53900678    -0.41055930     1.65644077
O       3.86155102     0.92803799     0.82753299    -0.45429250     0.30531219    -0.13433325
O      -0.14806200     4.78351299     0.78131502     0.64444930    -0.22758797     0.54554510
O      -0.05308098     0.95766202     0.82270600     0.53576462    -0.42108438    -0.17512690
O       5.82105125     4.71845123     4.12248483     0.23187014     0.62448622    -0.52785359
O       5.56840620     0.96329823     4.09697081     0.90999474    -0.15286859    -1.19370065
O       1.78822524     4.74176223     4.09457480    -0.42713958    -0.32142504    -0.30422641
O       1.90753523     0.91525222     4.05809083    -0.59756471     0.56962477    -0.31318619
O       3.78946422     2.99851224     3.36747484     0.24966372    -0.30179286    -1.59185566
O       3.76956424    -1.00411875     3.31241680     0.74104646    -0.28081882    -0.62348503
O       0.02148724    -1.02301879     3.30194279    -0.80611802     0.56042125    -0.80430590
O       5.65473301     6.77681003     1.62069698     0.82167345    -0.57254992     0.80763625
O       5.76474499     2.84243898     1.61676498    -0.41507134     0.04424330     1.10718634
O       1.93852100     6.47756500     1.62512900    -0.57919185     0.34905464     0.32831071
O       1.91289601     2.92995902     1.61667301    -0.49934904    -0.01781904     0.03057043
