# total energy = -19074.37976640 eV

CRYSTAL
PRIMVEC
        7.60600008     0.00000000     0.00000000
        0.00000000     7.60600008     0.00000000
       -1.89786986    -1.89786986     4.85670466
PRIMCOORD
22 1
Ti      3.76231600     6.75074498     1.05378098    -1.88843381     0.54405771     1.31646830
Ti      3.85737798     3.05206498     1.14097399    -0.43046222    -1.51377354     0.38396303
Ti     -0.14966101     6.59703999     1.39652300     0.95342017    -0.00474009    -0.39699570
Ti      0.06445199     2.83948897     1.22243501     0.24147836     0.54412816     0.74862736
Ti      5.67833024     2.97376421     3.55093180    -0.05258011    -1.35631244     0.27083497
Ti      5.67066024    -1.11277779     3.78028082     1.17790636     0.87484440     0.36760772
Ti      1.91352520     2.92976524     3.60425181    -0.19341259    -0.56472142    -1.58938766
Ti      1.72504523    -0.79692078     3.75170181     0.48894790     0.04751246    -0.20348901
O       3.90929900     4.86761900     0.59339503     1.30541744    -0.10714099     1.80374678
O       3.53486101     1.05928400     0.92319998     0.75331268    -0.23053214    -1.57929813
O      -0.05944698     4.63734000     0.71054503     0.08547250     1.10709583    -0.41718710
O      -0.11399600     0.94073898     0.92815298     0.56962683    -0.74467917    -0.55952316
O       5.34410025     4.70912723     4.06978782    -0.31836440     0.67065708     0.54804678
O      -0.01280376    -0.82739779     3.32898883    -3.22930471    -0.71559278    -0.29615443
O       1.72179725     4.84696325     4.03880984     0.71039607     0.40305142    -0.11089455
O       1.39743324     1.07321221     4.06793480     2.47289051    -0.45489414     0.19145444
O       3.86731725     2.48834023     3.04923679     0.53518921     0.62632636     1.47585541
O       0.01268824     2.80041521     3.17364679     0.13800170     0.57126797     0.38716097
O       5.37752700    -0.67340001     1.97082298     0.81172199    -0.66239201    -0.87977604
O       5.86935502     2.97908699     1.62760100    -2.37155738     0.02173894    -0.74645143
O       2.01361702     6.36316497     1.84361798     0.33435692     1.25553802    -0.51670040
O       2.11996101     3.29394201     1.69265001    -2.09402315    -0.31143913    -0.19790843
