# total energy = -19958.69947148 eV

CRYSTAL
PRIMVEC
        7.60600008     0.00000000     0.00000000
        0.00000000     7.60600008     0.00000000
       -1.89786986    -1.89786986     4.85670466
PRIMCOORD
24 1
Ti      3.67929798     6.52865399     1.31513099     1.38649618     0.73342056     0.02790908
Ti      3.87662098     2.88291898     1.25418898    -3.49873688    -0.40924573    -1.86966706
Ti     -0.00502401     6.58955102     1.14336503    -0.69451693     1.84820374     1.07035604
Ti      0.04398802     2.98743302     1.10488601     0.92095535    -1.40030763     2.23154662
Ti      5.77161720     2.89374822     3.54236882     1.36768675     0.92528021     1.37682394
Ti      5.71235422    -0.96477675     3.68759283     1.69898560    -0.56307232     0.13774356
Ti      1.88320520     2.95334220     3.63468781    -1.12367226    -0.92263968    -0.11578942
Ti      1.87618423    -1.01577579     3.67673380    -1.56968914     0.74567393     0.82956031
O       3.66714098     4.71574698     0.71453799     0.80719865    -0.45533380     0.44982778
O       3.51196298     0.82214099     0.79494800     1.17352725     2.31066232     0.96088434
O       0.00630499     4.82562899     0.75695101    -0.79443672    -0.75147048    -1.10279206
O       0.16613202     1.00317899     0.79649198    -1.10465611    -1.18425930    -0.50923545
O      -1.43654975     4.74273523     4.03961281    -1.52772847    -0.39385201    -0.12374570
O      -1.57586477     0.96177420     4.21373880    -1.47597754     0.25875618    -3.84210861
O       1.55944720     4.73793623     4.32226681     0.71303093    -0.66387322    -3.06344253
O       1.66263423     0.97264223     4.02455984     1.91838434    -1.35821506     0.45912926
O       3.84577323     3.09512223     3.34340383    -0.51242928    -0.93170848    -1.19222869
O       3.85462922    -1.25587478     3.37656181    -0.94299203     0.79872481    -0.13268903
O       0.03597924     2.68750620     3.22249080    -0.98949070     0.81698222    -1.08736544
O      -0.03299579    -1.06683679     3.07767584     0.44210495     0.81498293     0.60086215
O       5.67935901     6.53580201     1.53712000    -0.50254698     0.70883746     0.51448976
O       5.60126102     3.10771601     1.49522900     2.13711177    -0.87969093     0.98496710
O       1.86409502     6.38793502     1.69346600     0.52885838     0.39967916     1.02032441
O       1.81640499     3.11413901     1.46265698     1.64253289    -0.44753512     2.37463911
