# total energy = -19925.37718468 eV

CRYSTAL
PRIMVEC
        7.29781116     0.00000000     0.00000000
        0.00002872     5.17805189     0.00000000
        0.00000000     0.00000000    11.33808795
PRIMCOORD
24 1
Ti      2.64512268     3.06850873     4.20634976     0.55324941    -0.44506995     1.27316242
Ti      4.65271733     2.10954315     7.13173832    -0.55324941     0.44506995    -1.27316242
Ti      6.29390245     2.10954496     1.46264895     0.55491112     0.44510492    -1.27442278
Ti      1.00393755     3.06850718     9.87543919    -0.55491112    -0.44510492     1.27442278
Ti      2.64510832     0.47948291     1.46269440     0.55288200    -0.46044541    -1.27463746
Ti      4.65273169     4.69856916     9.87539374    -0.55288200     0.46044541     1.27463746
Ti      1.00392319     0.47948099     7.13169280    -0.55470774    -0.45987925    -1.27379337
Ti      6.29391681     4.69857109     4.20639521     0.55470774     0.45987925     1.27379337
O       2.30981348     1.82328012     5.78573951     0.83790920     1.27194449    -1.31601861
O       4.98802652     3.35477183     5.55234856    -0.83790920    -1.27194449     1.31601861
O       1.33915514     1.82330099     0.11673197    -0.83853398     1.27368641    -1.31833775
O       5.95868498     3.35475096    11.22135573     0.83853398    -1.27368641     1.31833775
O       4.98801222     0.76574582     0.11669516    -0.83828639    -1.27300687    -1.31654903
O       2.30982778     4.41230606    11.22139254     0.83828639     1.27300687     1.31654903
O       5.95867062     0.76572502     5.78577626     0.83811798    -1.27347455    -1.31769806
O       1.33916932     4.41232699     5.55231175    -0.83811798     1.27347455     1.31769806
O       0.26516397     3.14958468     3.06270044    -1.79727248     0.51378836     0.29856458
O       7.03267603     2.02846726     8.27538764     1.79727248    -0.51378836    -0.29856458
O       3.91407771     2.02841898     2.60637967    -1.79954559    -0.51379505    -0.29910168
O       3.38376229     3.14963297     8.73170823     1.79954559     0.51379505     0.29910168
O       0.26514961     0.56055868     2.60634342    -1.79864854     0.51354077    -0.29910374
O       7.03269039     4.61749321     8.73174441     1.79864854    -0.51354077     0.29910374
O       3.38374799     0.56060696     8.27542377     1.79939364     0.51305457    -0.29812852
O       3.91409201     4.61744499     3.06266425    -1.79939364    -0.51305457     0.29812852
