# total energy = -19518.12797698 eV

CRYSTAL
PRIMVEC
        5.93400000     0.00000000     0.00000000
        0.00000000     9.29699974     0.00000000
        0.00000000     0.00000000     4.64899994
PRIMCOORD
23 1
Ti      4.54429598     7.03885802     2.31773799    -0.33220311    -0.14350232    -0.41114037
Ti      4.48410397     2.31290501     2.33855402    -0.79099015    -0.55992631     0.23392034
Ti      1.46341000     7.05887002     2.33457302     0.32446408     0.10277577    -0.57714345
Ti      1.40228500     2.33303798     2.28044200     0.88114026    -0.55515923     0.37096096
Ti      2.97529898     4.42309100     0.02236203     0.04910500     0.63522650     1.16249953
Ti      2.93133801     0.06334098     0.00132400     0.33431398    -0.08283378    -0.11179855
Ti      0.02082101     4.66612401     0.02549899     0.07616587     0.80069376     0.35774960
Ti      5.88005001     0.03588801     0.00781198     0.09939014    -0.23809375    -0.46896245
O       4.37336501     5.61000901     0.90320301     0.11731305    -0.40740919    -0.09965060
O       4.51019897     0.92772699     0.89763601    -0.49407931    -0.05220113    -0.07872335
O       1.53429398     5.52569901     0.95524500     0.02027547     0.19824421    -0.02060560
O       1.42808498     0.90341003     0.80040297     0.50816099     1.01251443     1.21970402
O       4.45301000     8.42615301     3.70451698    -0.22175413    -0.72284278     0.03525678
O       4.44279597     3.68260100     3.71623900     0.25302210     0.79501753    -0.03933635
O       1.58829398     8.39559202     3.79034001    -0.62683981    -1.26355935    -1.00883621
O       1.48876299     3.63687400     3.79832698    -0.46689734     0.55179288    -0.86317750
O       2.93794298     1.54236102     3.23658999     0.05094797    -1.08750274     0.03599134
O       0.03679100     5.98908201     3.31835602    -0.09290865     1.07221932    -1.12000483
O       0.00020299     1.29033300     3.15165101     0.16558270     0.92359073    -0.26597404
O       2.99436402     7.94720400     1.41907802    -0.23145876    -0.83202678     0.89474860
O       2.97397900     3.20173298     1.34924599    -0.10308765    -0.34529337     0.46785662
O       0.01100202     7.90730599     1.48059000     0.27107691     0.17843231    -0.50213663
O       5.88792502     3.20218198     1.32374499     0.20926062     0.01984275     0.78880240
