# total energy = -19890.03461294 eV

CRYSTAL
PRIMVEC
        8.73408235     0.00000000     0.00000000
        0.00002715     3.09856828     0.00000000
        0.00000000     0.00000000    13.89518835
PRIMCOORD
24 1
Ti      3.16570065     1.83620859     5.15501589     0.03937260     0.20357822     1.98077244
Ti      5.56840849     1.26235939     8.74017288    -0.03937260    -0.20357822    -1.98077244
Ti      7.53259285     1.26236039     1.79252298     0.03357091    -0.20334143    -1.98278716
Ti      1.20151636     1.83620771    12.10266591    -0.03357091     0.20334143     1.98278716
Ti      3.16568743     0.28692451     1.79257870     0.03980506     0.20414541    -1.98162270
Ti      5.56842177     2.81164360    12.10261019    -0.03980506    -0.20414541     1.98162270
Ti      1.20150308     0.28692345     8.74011716    -0.03302249     0.20389550    -1.98188830
Ti      7.53260613     2.81164465     5.15507162     0.03302249    -0.20389550     1.98188830
O       2.76440163     1.09105847     7.09060842     2.28593859     0.31277224    -1.34482398
O       5.96970757     2.00750957     6.80458035    -2.28593859    -0.31277224     1.34482398
O       1.60270946     1.09107105     0.14305878    -2.28557118     0.31264935    -1.34447791
O       7.13139981     2.00749699    13.75212958     2.28557118    -0.31264935     1.34447791
O       5.96969429     0.45822537     0.14301365    -2.28604323    -0.31237347    -1.34358265
O       2.76441491     2.64034261    13.75217470     2.28604323     0.31237347     1.34358265
O       7.13138653     0.45821285     7.09065349     2.28440981    -0.31252696    -1.34554183
O       1.60272256     2.64035519     6.80453528    -2.28440981     0.31252696     1.34554183
O       0.31734571     1.88472487     3.75343710    -1.11428490     0.44746956     1.71062499
O       8.41676349     1.21384311    10.14175162     1.11428490    -0.44746956    -1.71062499
O       4.68439844     1.21381439     3.19420143    -1.11405401    -0.44758655    -1.70751369
O       4.04971077     1.88475365    10.70098710     1.11405401     0.44758655     1.70751369
O       0.31733244     0.33544073     3.19415708    -1.11432167     0.44765339    -1.70837296
O       8.41677677     2.76312731    10.70103145     1.11432167    -0.44765339     1.70837296
O       4.04969755     0.33546945    10.14179591     1.11411649     0.44760660    -1.71021901
O       4.68441166     2.76309853     3.75339274    -1.11411649    -0.44760660     1.71021901
