# total energy = -19952.88426552 eV

CRYSTAL
PRIMVEC
        5.56567965     0.00000000     0.00000000
        1.17301243     5.80626197     0.00000000
        0.00000000     0.00000000    10.01202112
PRIMCOORD
24 1
Ti      2.71241717     3.44078547     3.71438855     0.39129814    -1.70027912     0.86669940
Ti      4.02627464     2.36547664     6.29763296    -0.39129814     1.70027912    -0.86669940
Ti      5.27792573     2.36547872     1.29158220    -0.78969252    -0.40091124     0.18267618
Ti      1.46076611     3.44078361     8.72043943     0.78969252     0.40091124    -0.18267618
Ti      2.12591109     0.53765470     1.29162235     0.39129814    -1.70027912    -0.86669940
Ti      4.61278074     5.26860758     8.72039928    -0.39129814     1.70027912     0.86669940
Ti      0.87425993     0.53765245     6.29759282     0.78969252     0.40091124     0.18267618
Ti      5.86443189     5.26860983     3.71442870    -0.78969252    -0.40091124    -0.18267618
O       2.17461027     2.04448357     5.10905789     1.21840999     1.49152989    -0.56173586
O       4.56408154     3.76177854     4.90296362    -1.21840999    -1.49152989     0.56173586
O       1.43434192     2.04450695     0.10307938    -0.41899638    -0.00138351     0.67527890
O       5.30434995     3.76175521     9.90894185     0.41899638     0.00138351    -0.67527890
O       3.97757545     0.85864760     0.10304688    -1.21840999    -1.49152989    -0.56173586
O       2.76111636     4.94761451     9.90897435     1.21840999     1.49152989     0.56173586
O       4.71784385     0.85862427     5.10909039     0.41899638     0.00138351     0.67527890
O       2.02084790     4.94763790     4.90293112    -0.41899638    -0.00138351    -0.67527890
O       0.91570661     3.53169760     2.70449678     0.20097395     0.77365937     0.80068810
O       5.82298520     2.27456451     7.30752473    -0.20097395    -0.77365937    -0.80068810
O       3.44457359     2.27451028     2.30154583     0.79929276     0.79181368     0.07890693
O       3.29411822     3.53175183     7.71047552    -0.79929276    -0.79181368    -0.07890693
O       0.32920051     0.62856666     2.30151383     0.20097395     0.77365937    -0.80068810
O       6.40949130     5.17769550     7.71050751    -0.20097395    -0.77365937     0.80068810
O       2.70761212     0.62862084     7.30755667    -0.79929276    -0.79181368     0.07890693
O       4.03107969     5.17764127     2.70446479     0.79929276     0.79181368    -0.07890693
