# total energy = -19923.17680139 eV

CRYSTAL
PRIMVEC
        6.29050520     0.00000000     0.00000000
        0.33457538     6.68663453     0.00000000
        0.00000000     0.00000000    11.26214159
PRIMCOORD
24 1
Ti      2.47827456     3.96249326     4.17817420    -0.00535998    -1.12799557     0.66773271
Ti      4.14680577     2.72414101     7.08396752     0.00535998     1.12799557    -0.66773271
Ti      5.56146069     2.72414330     1.45285165     0.09043242     0.63068798    -0.56658367
Ti      1.06361970     3.96249123     9.80929019    -0.09043242    -0.63068798     0.56658367
Ti      2.31098700     0.61917625     1.45289679    -0.00535998    -1.12799557    -0.66773271
Ti      4.31409333     6.06745821     9.80924506     0.00535998     1.12799557     0.66773271
Ti      0.89633213     0.61917378     7.08392232    -0.09043242    -0.63068798    -0.56658367
Ti      5.72874826     6.06746069     4.17821940     0.09043242     0.63068798     0.56658367
O       2.10879419     2.35447759     5.74698465     1.51165033     1.48072200    -0.13819967
O       4.51628613     4.33215669     5.51515707    -1.51165033    -1.48072200     0.13819967
O       1.27211575     2.35450457     0.11595005    -1.29138332     1.09666461     0.17907329
O       5.35296463     4.33212977    11.14619134     1.29138332    -1.09666461    -0.17907329
O       4.34899857     0.98883949     0.11591353    -1.51165033    -1.48072200    -0.13819967
O       2.27608176     5.69779479    11.14622786     1.51165033     1.48072200     0.13819967
O       5.18567707     0.98881257     5.74702123     1.29138332    -1.09666461     0.17907329
O       1.43940319     5.69782184     5.51512048    -1.29138332     1.09666461    -0.17907329
O       0.43205631     4.06719002     3.04218546     0.47495569     0.06368471     0.59147530
O       6.19302408     2.61944426     8.21995632    -0.47495569    -0.06368471    -0.59147530
O       3.50487812     2.61938196     2.58892121     0.52367374     0.61571310    -0.08387996
O       3.12020226     4.06725232     8.67322031    -0.52367374    -0.61571310     0.08387996
O       0.26476875     0.72387282     2.58888527     0.47495569     0.06368471    -0.59147530
O       6.36031164     5.96276146     8.67325625    -0.47495569    -0.06368471     0.59147530
O       2.95291470     0.72393512     8.21999220    -0.52367374    -0.61571310    -0.08387996
O       3.67216568     5.96269916     3.04214946     0.52367374     0.61571310     0.08387996
