# total energy = -4989.89876776 eV

CRYSTAL
PRIMVEC
        3.89855803     0.00000000     0.00000000
        0.77198358     3.82136050     0.00000000
       -2.33530632    -1.91070930     5.00074343
PRIMCOORD
6 1
Ti      0.57885330     2.86616651     1.25018599    -0.00012984     0.00012984     0.00000000
Ti      1.75638199    -0.95551531     3.75055760     0.00012984    -0.00012984     0.00000000
O       0.19303674     0.95533454     0.81458030    -0.00039929    -0.00050059    -0.65725314
O       2.14219843     0.95531656     4.18616334     0.00039929     0.00050059     0.65725314
O      -0.19301116    -0.95531360     3.31495191    -0.00050059    -0.00039929    -0.65725314
O       2.52824621     2.86596460     1.68579168     0.00050059     0.00039929     0.65725314
