# total energy = -19958.45435409 eV

CRYSTAL
PRIMVEC
        7.60600008     0.00000000     0.00000000
        0.00000000     7.60600008     0.00000000
       -1.89786986    -1.89786986     4.85670466
PRIMCOORD
24 1
Ti      3.69615497     6.71199603     1.24379800     1.54935737     0.51188523     0.73286263
Ti      3.71796798     2.88532499     1.16568001     0.11102259    -0.47619548     1.39224182
Ti      0.18529099     6.68384602     1.20221599    -1.39703822     1.38356023     1.05824280
Ti     -0.10753998     2.75205201     1.18214298     0.41542718     0.30322985     0.74596421
Ti      5.72564524     2.84755623     3.75396680     0.44929324    -1.97192424    -1.96282202
Ti      5.80095823    -1.08151775     3.50129783    -0.56553646     1.89358244     0.40080736
Ti      1.88044623     2.76343620     3.70632280    -0.54800153     1.38409991    -2.52664793
Ti      1.91692321    -0.98754778     3.76850181     0.23674495    -1.21643461    -0.29809201
O       3.94874202     4.99284699     0.71859101    -0.67033904    -2.57861842     0.49669978
O       3.80817899     1.00870799     0.77230001     0.00867465    -1.11270264     1.01853955
O       0.16758800     4.73865898     0.81652399    -0.46710714     2.79065892     0.67134434
O      -0.19812603     0.98930899     0.65279702     0.65887860    -3.75395470    -0.55383794
O       5.87876522     4.70315420     3.81729883     0.62086868     1.33954036     1.50048659
O       5.82863822     1.03068223     4.18911782    -1.27674680    -0.63957629    -1.89320346
O       1.62670325     4.75110025     3.83424881     0.02335231     1.04067624     1.19809492
O       1.81324622     0.94811725     4.10210679     1.18854121     1.34117789     0.49331209
O       3.77207021     3.09755221     3.07172783    -0.37026136    -0.62238434     0.97739494
O       3.76783722    -1.13272078     3.32425883     1.11165389     0.53775851    -1.13242172
O       0.04370321     2.63458720     3.29999881    -1.53308999     0.95352970    -0.20016714
O       0.11263125    -0.51647980     3.25733379    -2.68360895    -2.12172037    -1.48033556
O       5.65907099     6.72475401     1.59329602     1.05397502    -0.17258588     0.71606407
O       5.64330500     2.70717799     1.52417198    -0.68018405     0.79474988     0.74896366
O       1.94230498    -0.59707598     1.86733401    -0.59796477    -0.54121613    -2.92763115
O       1.69006101     2.53849200     1.53703300     3.36208810     0.93286394     0.82414017
