# total energy = -4989.56672111 eV

CRYSTAL
PRIMVEC
        3.23975936     0.00000000     0.00000000
        0.00000000     4.59276826     0.00000000
        0.00000000    -0.00006282     4.84660908
PRIMCOORD
6 1
Ti      1.61987968     2.29635255     2.42330454     0.00000000     0.00000000     0.00000000
Ti      0.00000000     0.00000000     0.00000000     0.00000000     0.00000000     0.00000000
O       1.61987968     0.89505058     0.94453272     0.00000000    -0.08591627    -0.16762982
O       1.61987968     3.69765447     3.90207631     0.00000000     0.08591627     0.16762982
O       0.00000000     1.40127652     3.36783824    -0.00000000     0.08604663    -0.16793964
O       0.00000000     3.19142858     1.47877079    -0.00000000    -0.08604663     0.16793964
