# total energy = -19883.05724158 eV

CRYSTAL
PRIMVEC
        9.23871822     0.00000000     0.00000000
        0.00002872     3.27759667     0.00000000
        0.00000000     0.00000000    14.69802146
PRIMCOORD
24 1
Ti      3.34860780     1.94230064     5.45286126     0.19491643     0.10243793     2.01841880
Ti      5.89013876     1.33529572     9.24516064    -0.19491643    -0.10243793    -2.01841880
Ti      7.96780932     1.33529677     1.89609097     0.19581555    -0.10220576    -2.01771586
Ti      1.27093731     1.94229971    12.80193105    -0.19581555     0.10220576     2.01771586
Ti      3.34859382     0.30350237     1.89614991     0.19580423     0.10396722    -2.01800408
Ti      5.89015281     2.97409411    12.80187211    -0.19580423    -0.10396722     2.01800408
Ti      1.27092326     0.30350125     9.24510170    -0.19653468     0.10262434    -2.01835221
Ti      7.96782337     2.97409523     5.45292020     0.19653468    -0.10262434     2.01835221
O       2.92412262     1.15409741     7.50028802     1.16353003     0.46657698    -1.87901302
O       6.31462401     2.12349901     7.19773388    -1.16353003    -0.46657698     1.87901302
O       1.69531045     1.15411071     0.15132439    -1.16264711     0.46650422    -1.88107942
O       7.54343624     2.12348571    14.54669706     1.16264711    -0.46650422     1.88107942
O       6.31460996     0.48470062     0.15127666    -1.16268002    -0.46622191    -1.87911587
O       2.92413666     2.79289574    14.54674480     1.16268002     0.46622191     1.87911587
O       7.54342219     0.48468737     7.50033569     1.16370718    -0.46610235    -1.87987769
O       1.69532431     2.79290905     7.19768621    -1.16370718     0.46610235     1.87987769
O       0.33568124     1.99362009     3.97030235    -1.43402432     0.51751672     0.93806348
O       8.90306538     1.28397627    10.72771949     1.43402432    -0.51751672    -0.93806348
O       4.95505257     1.28394589     3.37875529    -1.43352553    -0.51763988    -0.93936472
O       4.28369406     1.99365053    11.31926635     1.43352553     0.51763988     0.93936472
O       0.33566720     0.35482175     3.37870838    -1.43424466     0.51844412    -0.93945779
O       8.90307943     2.92277467    11.31931327     1.43424466    -0.51844412     0.93945779
O       4.28368007     0.35485213    10.72776634     1.43337280     0.51857345    -0.93871963
O       4.95506656     2.92274422     3.97025544    -1.43337280    -0.51857345     0.93871963
