# total energy = -4989.20636454 eV

CRYSTAL
PRIMVEC
        3.96689010     0.00000000     0.00000000
        0.97645643     3.84483418     0.00000000
       -2.47170939    -1.92244519     5.10328002
PRIMCOORD
6 1
Ti      0.73221351     2.88377288     1.27581992    -0.00028822     0.00028822     0.00000000
Ti      1.73942382    -0.96138373     3.82745977     0.00028822    -0.00028822    -0.00000000
O       0.24415570     0.96120307     0.83128256    -0.00051756    -0.00074665    -0.98033423
O       2.22748145     0.96118598     4.27199714     0.00051756     0.00074665     0.98033423
O      -0.24412736    -0.96118102     3.38292240    -0.00074665    -0.00051756    -0.98033423
O       2.71576450     2.88357002     1.72035729     0.00074665     0.00051756     0.98033423
