# total energy = -4988.26825016 eV

CRYSTAL
PRIMVEC
        4.03797919     0.00000000     0.00000000
        1.18472871     3.86027121     0.00000000
       -2.61139039    -1.93016254     5.21365366
PRIMCOORD
6 1
Ti      0.88842296     2.89535140     1.30341311     0.00024066    -0.00024066    -0.00000000
Ti      1.72289429    -0.96524292     3.91023977    -0.00024066     0.00024066    -0.00000000
O       0.29622441     0.96506245     0.84926143    -0.00061192    -0.00092097    -1.27085665
O       2.31509266     0.96504595     4.36439145     0.00061192     0.00092097     1.27085665
O      -0.29619331    -0.96503946     3.45608810    -0.00092097    -0.00061192    -1.27085665
O       2.90751037     2.89514775     1.75756484     0.00092097     0.00061192     1.27085665
