# total energy = -4988.03714418 eV

CRYSTAL
PRIMVEC
        3.57797630     0.00000000     0.00000000
        0.00000000     3.73743495     0.00000000
        0.00000000    -0.00006532     4.86645133
PRIMCOORD
6 1
Ti      1.78898799     1.86868476     2.43322561     0.00000000     0.00000000     0.00000000
Ti      0.00000000     0.00000000     0.00000000     0.00000000     0.00000000     0.00000000
O       1.78898799     0.72835828     0.94839967     0.00000000    -0.23941556     0.03797212
O       1.78898799     3.00901124     3.91805151     0.00000000     0.23941556    -0.03797212
O       0.00000000     1.14030034     3.38162634     0.00000000     0.23946852     0.03924739
O       0.00000000     2.59706918     1.48482488     0.00000000    -0.23946852    -0.03924739
