# total energy = -19907.90028430 eV

CRYSTAL
PRIMVEC
        7.99006826     0.00000000     0.00000000
        0.00003015     5.10230911     0.00000000
        0.00000000     0.00000000    12.20306346
PRIMCOORD
24 1
Ti      2.89603308     3.02362363     4.52724953     0.53227872    -0.51995567     2.08598819
Ti      5.09406480     2.07868541     7.67581406    -0.53227872     0.51995567    -2.08598819
Ti      6.89092974     2.07868713     1.57423351     0.53192287     0.51996621    -2.08661297
Ti      1.09916821     3.02362211    10.62883014    -0.53192287    -0.51996621     2.08661297
Ti      2.89601827     0.47246914     1.57428246     0.53193624    -0.53739290    -2.08565318
Ti      5.09407962     4.62984003    10.62878125    -0.53193624     0.53739290     2.08565318
Ti      1.09915333     0.47246729     7.67576511    -0.53145468    -0.53736513    -2.08661323
Ti      6.89094455     4.62984188     4.52729841     0.53145468     0.53736513     2.08661323
O       2.52891752     1.79660972     6.22712990     0.75422671     1.44628360    -1.89237839
O       5.46118043     3.30569925     5.97593369    -0.75422671    -1.44628360     1.89237839
O       1.46618428     1.79663033     0.12563738    -0.75324763     1.44651500    -1.89301320
O       6.52391374     3.30567871    12.07742581     0.75324763    -1.44651500     1.89301320
O       5.46116561     0.75454464     0.12559778    -0.75426913    -1.44692715    -1.89267741
O       2.52893233     4.34776434    12.07746542     0.75426913     1.44692715     1.89267741
O       6.52389886     0.75452410     6.22716944     0.75344509    -1.44682251    -1.89281831
O       1.46619896     4.34778494     5.97589408    -0.75344509     1.44682251     1.89281831
O       0.29031589     3.10351364     3.29635188    -2.18118203     0.71514078     0.26219528
O       7.69978206     1.99879534     8.90671164     2.18118203    -0.71514078    -0.26219528
O       4.28535921     1.99874790     2.80521867    -2.18191943    -0.71497289    -0.26199859
O       3.70473867     3.10356114     9.39784466     2.18191943     0.71497289     0.26199859
O       0.29030101     0.55235902     2.80517972    -2.18131265     0.71455894    -0.26180730
O       7.69979687     4.54994996     9.39788361     2.18131265    -0.71455894     0.26180730
O       3.70472385     0.55240652     8.90675053     2.18205312     0.71474689    -0.26208396
O       4.28537403     4.54990246     3.29631293    -2.18205312    -0.71474689     0.26208396
