# total energy = -19958.01358348 eV

CRYSTAL
PRIMVEC
        7.60600008     0.00000000     0.00000000
        0.00000000     7.60600008     0.00000000
       -1.89786986    -1.89786986     4.85670466
PRIMCOORD
24 1
Ti      3.82150299     6.68271300     1.10943497     0.74325581    -3.33004854     3.75312115
Ti      3.77166598     2.68329898     1.18246498     1.06571057     1.78073591    -1.34531017
Ti      0.02600800     6.66493597     1.26854402    -1.98124655     1.96442870    -0.17688811
Ti     -0.05010001     2.86453499     1.33546198    -0.96985184    -1.29192145    -2.48377965
Ti      5.77316224     2.89796523     3.74045383    -2.11389830    -0.31455016    -1.76076126
Ti      5.69140922    -0.86999375     3.71218783    -0.96008756     0.45385001    -0.65685539
Ti      1.97452320     2.84501824     3.58823584     0.68088725    -2.42332656     0.96808883
Ti      1.88667322    -1.09641277     3.56396084     1.49386831     2.88645672    -0.61713544
O       3.85183702     4.77415402     1.03387000    -0.73392373    -0.01043405    -2.85221501
O       3.94118500     0.79985501     0.68057200    -0.38758443     1.82010029    -0.54309869
O       7.18058502     4.94338998     0.67216200     1.83293061    -0.83619042     1.24248992
O       0.09022800     0.98220399     0.87531997    -1.01065038     0.68822955    -0.33217482
O       5.47614823     4.96006621     3.91161780     1.31516218    -3.12749156     1.41322075
O       5.34222024     1.04849820     4.25837680     1.27116776     0.31703205    -0.93001644
O       2.01190121     4.69563824     3.67320080    -0.91697503    -0.27014334     1.62522525
O       2.40395022     0.86674725     4.09093581    -2.43770906     0.76110852     0.81295741
O       3.68550623     2.85181124     3.12482981     1.52978201     0.02058760     0.13965441
O       3.81987524    -1.04082577     3.06195080    -0.91889204     0.68985192    -0.39291073
O       0.02088022     2.67741024     3.20863879    -0.78085897     0.49083149     1.65001147
O      -0.02239076    -0.87791479     3.35213081     1.14004865    -0.19023599    -0.40301594
O       5.77794399     6.73290398     1.75124702    -0.49763052     0.81274195    -0.77916256
O       5.60604600     2.84643802     1.67966701     1.42805165    -0.27107665     1.17308656
O       1.82614201     6.95897099     1.62467502     1.14587811    -1.45156696    -0.22595403
O       1.86230900     2.71556101     1.44830098     0.06256576     0.83103073     0.72142173
