# total energy = -4972.99525953 eV

CRYSTAL
PRIMVEC
        2.76759909     0.00000000     0.00000000
        2.04066513     3.82624648     0.00000000
       -0.00001313    -0.00005912     4.48740069
PRIMCOORD
6 1
Ti      2.40412532     1.91309359     2.24370044     0.00000000     0.00000000     0.00000000
Ti      0.00000000     0.00000000     0.00000000     0.00000000     0.00000000     0.00000000
O       1.78149245     0.74566753     0.87452835   -13.34480272     5.19058021     7.92190705
O       3.02675822     3.08051974     3.61287258    13.34480272    -5.19058021    -7.92190705
O       0.62262731     1.16740230     3.11822967    13.34479809    -5.19057635     7.92103879
O       1.41802439     2.65878504     1.36917122   -13.34479809     5.19057635    -7.92103879
