# total energy = -19074.59742559 eV

CRYSTAL
PRIMVEC
        7.60600008     0.00000000     0.00000000
        0.00000000     7.60600008     0.00000000
       -1.89786986    -1.89786986     4.85670466
PRIMCOORD
22 1
Ti      3.70567101     6.65320099     1.37914498     1.28402482    -0.56379685    -0.55239195
Ti      3.74875398     2.84232801     1.34857499     1.89462245     0.63962128    -1.43912076
Ti      0.14847698     6.74278102     1.15433101    -1.56057587    -1.37630843    -0.76736068
Ti      0.26486501     2.85094799     0.98904001    -2.12166277     0.72385091     0.15659490
Ti      5.81370822     2.92676623     3.38117381     1.11908541     0.58729314     0.55733284
Ti      5.89236524    -0.93608180     3.51104279     0.54581558    -0.62019968    -1.31830072
Ti      1.89444625     2.76945221     3.71011282    -1.65945127     0.23507939     0.95970189
Ti      1.19050620    -0.95544275     4.05076882     0.35540295    -0.67176908    -1.90932788
O       3.66297101     4.78147698     0.92662900    -0.32566299    -2.03866059     0.29911197
O       3.98883799     0.91131599     0.84773201    -0.25243794     0.04549234     1.54502531
O       0.20200198     4.80978601     0.53982303     0.58356247    -0.81427510     0.43652051
O      -0.06346698     0.92003201     0.62063300     0.12942758     0.82755100     0.45674250
O       6.04963624     4.82789821     3.80381482    -0.59586829    -0.92382496     0.38669123
O       5.91399022     0.92180825     3.77251081    -0.29930763     1.10822146     0.70046466
O       1.75928924     4.63574421     4.34373479    -0.57856373     1.20933065    -1.52271147
O       1.53005823     0.84001221     4.04619879     0.33222470     1.89587432     1.57591662
O       3.69243322     2.91221724     3.24361079     1.71582633     0.03726224     0.20295859
O       0.06465424     2.92505022     3.00343280     0.87177450    -0.09898391    -0.09820255
O       5.80644802     6.48376198     1.46704799    -0.01312754     0.77338940     1.61217895
O       5.80406302     3.02021602     1.42640400    -0.99430304    -0.54716361     0.58942973
O       1.78324801    -0.79648198     2.26171902     0.71396270    -1.05933295    -1.61820434
O       1.98441299     2.38050201     1.64536500    -1.14476868     0.63134876    -0.25304961
