# total energy = -19959.58979068 eV

CRYSTAL
PRIMVEC
        7.60600008     0.00000000     0.00000000
        0.00000000     7.60600008     0.00000000
       -1.89786986    -1.89786986     4.85670466
PRIMCOORD
24 1
Ti      3.78934600     6.72846497     1.32729000    -0.73697408    -2.27989444    -0.94809181
Ti      3.77009501     2.84319401     1.21612801     0.30058521     1.56876792    -0.45025227
Ti     -0.03518097     6.51178700     1.19730697     0.40835278    -1.39265526     0.07493020
Ti      0.07459198     2.68767300     1.22273399    -0.08005878     2.19265559    -0.16881098
Ti      5.73706420     2.75026122     3.54322079     0.32072364     1.23400810     1.13461025
Ti      5.69103324    -1.04728676     3.64320582     0.48406100    -0.99132519    -0.87385633
Ti      1.92296123     2.94409620     3.63473983    -0.50755755     2.21570656     1.60204340
Ti      1.86478221    -0.80731578     3.72334881    -0.58313053    -2.90741533    -1.90936799
O       3.86423400     4.85099299     0.71701401    -0.07185259    -1.96445878    -0.04269447
O       3.79802202     0.86835097     0.84648802     0.13427463     4.04010522     0.63415486
O       0.07025299     4.61873402     0.61011200    -0.49467040    -0.37691512     0.99599303
O       0.03199898     0.71978700     0.74546199    -0.14457601     3.98579399     0.49598707
O       5.65375424     4.67293622     4.09840980    -0.02445994     0.25354352    -1.04120872
O       5.94382524     0.89688220     3.89083082    -0.96110674    -0.77463973     0.76968933
O       1.75400324     4.83273521     4.24437080     0.36113703    -0.32868738    -1.63346770
O       1.75232924     0.98256224     4.08462384     0.13135591     1.07337863    -0.31682071
O       3.77822423     3.16815324     3.02535984     0.29465907    -1.24480469     2.20603433
O       3.68632022    -0.94409677     3.31305382     1.64008315     0.35451618     0.44223865
O       0.03776124     3.20066721     3.15494180    -0.10559525    -1.86065560    -0.76691948
O      -0.06676375    -1.01078480     3.13472379     0.07402286    -0.13034212     1.02112377
O       5.67037803     6.41970301     1.55863798     0.13785849     0.66319934     1.20597124
O       5.72573801     2.90073399     1.67028502     0.72239310    -0.89748529    -1.98736526
O       1.87909799     6.73259499     1.69624000    -0.34892480    -0.46908149     0.28705658
O       1.92899200     3.20802002     1.63531201    -0.95059993    -1.96331464    -0.73097698
