# total energy = -4988.31053476 eV

CRYSTAL
PRIMVEC
        2.77396985     0.00000000     0.00000000
        0.00000000     4.34639488     0.00000000
        0.00000000    -0.00005641     4.34639488
PRIMCOORD
6 1
Ti      1.38698487     2.17316919     2.17319739     0.00000000     0.00000000     0.00000000
Ti      0.00000000     0.00000000     0.00000000     0.00000000     0.00000000     0.00000000
O       1.38698487     0.84703734     0.84704833     0.00000000     0.95264473     0.95264473
O       1.38698487     3.49930103     3.49934645    -0.00000000    -0.95264473    -0.95264473
O       0.00000000     1.32610898     3.02024661     0.00000000    -0.95173764     0.95173764
O       0.00000000     3.02022940     1.32614817     0.00000000     0.95173764    -0.95173764
