# total energy = -19518.10810354 eV

CRYSTAL
PRIMVEC
        5.93400000     0.00000000     0.00000000
        0.00000000     9.29699974     0.00000000
        0.00000000     0.00000000     4.64899994
PRIMCOORD
23 1
Ti      4.50674800     6.99688198     2.23643302     0.68950327     0.73105257     0.17151193
Ti      4.42820000     2.27716703     2.35947901     1.02654597     0.21253929    -0.20522450
Ti      1.47809102     6.98307099     2.26001401    -0.96169450     0.66116688    -0.24598242
Ti      1.49772899     2.31932102     2.32326302    -1.06570851     0.21053640    -0.12459159
Ti      2.91404502     4.54109298     0.11024000     0.90998445    -0.69453878    -0.52882264
Ti      2.99586101     0.07351500     0.01645403     0.86356060    -0.40548832     0.23551776
Ti      5.90880497     4.68738001     0.07839999    -0.65416911    -0.58822826    -0.58098057
Ti      0.06195200     9.26964001     4.48770000    -0.98248110     0.03587204     0.59008099
O       4.42911500     5.53204501     1.00960399    -0.36928537     0.30702660    -0.23635903
O       4.44738997     0.94244098     0.89440999    -0.26714363    -0.03656444     0.14561731
O       1.51221300     5.48747003     0.95544201    -0.23640685     1.05419203     0.59325631
O       1.49112798     0.88844002     0.86429901    -0.26254830     0.49487841     0.56462809
O       4.43169400     8.41015101     3.75464801    -0.13268826    -0.37739026    -0.67243963
O       4.41386400     3.73006000     3.86946402     0.07927922     0.28882267    -0.68331900
O       1.41397198     8.44630699     3.55493201     0.95814432    -0.36234416     0.53633232
O       1.41687600     3.72580298     3.78535902     0.75599408     0.21470133    -0.05559550
O       2.94630499     1.35101000     3.21905300    -0.21519499     0.63309788    -0.21304452
O       5.90316299     6.20237701     3.30298998     0.40256600    -0.99336562     0.17413780
O       5.89621902     1.45913499     3.25286002     0.63164855    -0.34357819    -0.01032195
O       3.00141002     7.83472399     1.37984000    -0.57648448    -0.23331253     0.35674892
O       3.05239598     3.28790499     1.41828901    -1.20939261    -0.98905464     1.15317208
O       0.01636200     7.80399101     1.30102302     0.14184524     0.25479873     0.03286874
O       5.88814801     3.32888802     1.59805502     0.47412651    -0.07481913    -0.99719039
