# total energy = -19074.31330025 eV

CRYSTAL
PRIMVEC
        7.60600008     0.00000000     0.00000000
        0.00000000     7.60600008     0.00000000
       -1.89786986    -1.89786986     4.85670466
PRIMCOORD
22 1
Ti      3.98650601     6.62070401     1.22051701    -0.27223210     0.05298171    -0.53671798
Ti      3.58193598     2.73183501     1.13987500     1.18633932     0.74691706     0.49414641
Ti      0.00577100     6.76091100     1.00866698     0.36774194    -0.49459224     1.57800230
Ti     -0.11832398     2.92119997     1.09248098    -1.45329372    -0.34494704     0.00836920
Ti      5.57468320     2.91469924     3.50765780    -0.22096223    -0.46595246    -0.16961214
Ti     -1.15788877    -0.81864980     3.83136384    -3.86819015    -0.21983789    -0.78201854
Ti      1.80502323     2.76155424     3.66787680     0.42231825    -0.28756180     0.49247031
Ti      1.58564920    -1.03653779     3.83629783     1.68976356     1.54845337    -1.72643548
O       3.72390201     4.67302401     0.86701501     0.12316437     1.30018961    -0.66380766
O       4.10263200     0.89673699     0.92769402    -1.38831369    -0.71935122     0.09368383
O      -0.11380200     4.83501998     0.66122899     0.18454717    -0.99807819     0.18762787
O       7.16890100     0.96888502     0.65688000     2.34468060     0.97137805     0.52811147
O       5.40041423     4.89314021     4.06022479     1.60893088    -0.63007992    -2.16644575
O       5.66768123     0.94971621     3.95250383     0.84660211    -0.09873811     0.53706097
O       2.25051724     4.87142923     4.15237080    -0.87253426    -2.22831166     0.19238312
O       2.11120122     0.92165722     4.05874183    -1.37384172    -0.97845193    -0.02508421
O       3.68292824     2.72879922     3.12052083     0.31564468     0.58445413     0.33360899
O      -0.01655176     2.70107621     3.22007479    -0.58585641     1.07313438    -0.04619169
O       5.93797502     6.59139701     1.97550101    -0.67476699     0.03087099     0.39268190
O       5.58977899     2.72359699     1.56620601     1.13412817     1.60281216     0.92183441
O       1.91845301     6.75147498     1.84789003     0.18708279    -0.33020099     0.32299598
O       1.73056698     2.78778301     1.53837700     0.29904769    -0.11508776     0.03333642
