# total energy = -19516.90617862 eV

CRYSTAL
PRIMVEC
        5.93400000     0.00000000     0.00000000
        0.00000000     9.29699974     0.00000000
        0.00000000     0.00000000     4.64899994
PRIMCOORD
23 1
Ti      4.60685002     7.27085202     2.23109802     1.02451866    -0.42747871     0.15120638
Ti      4.34095602     2.21567700     2.36190598    -0.50332705     0.25689007     0.16334867
Ti      1.53998099     6.94010799     2.19820002    -1.95095072     0.59709805     0.77885223
Ti      1.35123299     2.28271402     2.27162702     0.74861707     0.60725571     0.02567993
Ti      3.03872903     4.47072500     0.09331099     0.21131133    -0.45337282     0.18054190
Ti      2.88604599     9.12059697     4.61268399     0.51014459     0.49565334    -0.64348488
Ti      0.08458200     4.73992598     0.08102402    -1.82065616    -0.79094182    -1.72940793
Ti      5.88980402     0.16088798     0.04040702     1.08597344    -1.03947760    -0.41014150
O       4.31697101     5.70713002     0.95135200    -0.21744290    -0.80641344    -0.66500220
O       4.45983199     0.75593298     0.94688299    -0.09904510     1.55567997     0.89730582
O       1.50418797     5.46970602     0.83423598     1.55019349     2.22129846     1.71562578
O       1.59867802     0.91693601     0.85847801    -1.47167377     0.41321423     0.57932426
O       4.57319800     8.10474202     3.93935600    -1.20265735     1.43615320    -0.75194537
O       4.32271502     3.68342699     3.69535899     0.21156870     0.49980567    -0.17179038
O       1.52293498     8.31636101     3.78892700    -0.08475568    -0.73892632    -0.62130628
O       1.34256899     3.79673199     3.64856400     0.97897849     0.03951864     0.02465303
O       2.91711399     1.23199698     3.29281401     0.67269031     1.36016550    -1.17603999
O       0.11134800     6.28895400     3.24253000    -0.10863532    -1.33535769    -0.68277984
O       0.01938699     1.38824598     3.27357000    -0.80726524     0.20036820    -0.62051824
O       2.96661899     8.07059802     1.61743101     0.46146100    -1.19082718     0.29550908
O       2.87784300     3.14630102     1.35400800     0.72186910    -0.00243329     0.33853779
O       0.19608499     7.98476299     1.31036299    -0.04367920    -1.16146672     1.40035417
O       5.82208700     3.40910701     1.35172799     0.13276256    -1.73640571     0.92147754
