# total energy = -19069.47145491 eV

CRYSTAL
PRIMVEC
        5.93400000     0.00000000     0.00000000
        0.00000000     9.29699974     0.00000000
        0.00000000     0.00000000     4.64899994
PRIMCOORD
22 1
Ti      4.32717202     6.57987798     2.44229700     0.65297200     2.05761811    -2.90180904
Ti      4.48277500     2.51174098     1.93416502     0.40987205    -1.09196103    -1.05895705
Ti      1.41059102     7.51599799     2.89366403    -1.29040733    -1.66456083    -4.68657284
Ti      1.63775400     2.27689900     2.24626101    -1.23935292    -1.17442457     0.19261632
Ti      3.08729199     4.55486699     4.28351600    -2.99861445    -0.55197183     4.14397706
Ti      3.17664701     0.04169599     4.32009898    -0.17362255     0.65880635     1.05297846
Ti      5.82223798     4.53231297     4.15954798     0.27333845    -5.05713245     4.03235129
Ti      0.01645598     0.05152901     0.46182299    -2.37820420     0.07996262     3.39277628
O       4.33356898     5.48164199     0.83550103     0.00665582    -0.15762179     1.36648167
O       4.20038898     0.82815102     0.92123901     1.30598899     1.69803352     0.83767703
O       1.63111902     0.24021800     1.37786902     0.01713384     4.15046755     1.92137813
O       4.68259598     8.41901298     3.98864198    -0.92968888    -0.81079717     0.15912872
O       4.31896501     3.79376002     3.39333800     1.49570459    -1.20079510    -2.99045917
O       1.38608201     8.29629598     4.40658602     1.61237719    -0.89351293    -1.82415415
O       1.45784200     3.90639397     3.37816998     0.95463425    -0.68054606     0.49267831
O       2.89898702     6.16735299     3.56065702    -1.88523690     0.54995763     0.18022977
O       3.19902602     1.63939001     3.25817502    -0.92243322    -1.19370399     0.24513678
O       0.04218400     6.00272102     3.41350198     1.38390373     5.21824349    -2.38287898
O       2.96894499     7.69257200     1.87166898    -0.25558755     0.28171588    -0.31383565
O       2.73052900     2.94161002     1.03628500     0.97540491     1.76092890    -1.04381633
O       5.54205201     8.06920899     1.96173198     2.31659180    -1.20554213    -1.25393390
O       5.91102000     3.40660098     1.13383698     0.66857089    -0.77316443     0.43900729
