# total energy = -19515.92875943 eV

CRYSTAL
PRIMVEC
        5.17600016     0.00000000     0.00000000
        0.00000000     5.50899976     0.00000000
        0.00000000     0.00000000     9.26300011
PRIMCOORD
23 1
Ti      1.90960501     3.22074700     3.42640698    -1.71519075     0.15304317     3.99040295
Ti      3.34885901     2.25499799     5.97264899     0.28463794     1.31673749    -2.56000466
Ti      4.22254500     2.13047697     1.50490702     2.76919175     0.85342068    -1.73219244
Ti      0.88813601     3.40192099     7.79148602    -3.00537311     1.09557986     2.13837495
Ti      2.01331401     0.29417598     1.37056098    -1.45037114    -1.03631719    -0.50979132
Ti      3.28070199     5.20180200     7.90034001     1.38007896    -2.03022248     3.57250006
Ti      0.73100402     0.63108398     5.91929702    -0.04233503    -1.23287759    -3.47182565
Ti      4.49745501     4.84766002     3.32482400     1.95011279     0.07316951     2.89087773
O       1.83674201     1.96523000     4.91665901    -1.41382650    -0.74993939    -0.88568443
O       3.61211501     3.44796502     4.58233700     0.48595719     0.94463111    -0.64389857
O       4.78818901     3.07554701     9.16436200     0.49744874    -0.17087378     0.08436872
O       3.19981698     1.16326998     0.27870702    -0.67920215    -1.91445981    -3.12038169
O       1.72696202     4.62519200     9.03149601     0.91829735     1.24713513     1.26907359
O       4.43975601     0.57963398     4.72955501    -1.39654662     1.40049969    -0.47779933
O       0.99720003     4.64108001     4.36478699     0.89609200    -0.07614222     0.04877410
O       0.18166401     3.16960699     2.55722800     0.53402527     0.65435320     0.09213294
O       5.14867599     2.15083802     6.59630899    -0.36537292     0.17339346     1.17296984
O       2.70828302     1.84929399     2.46093600    -0.87337219    -1.34376623    -0.03901676
O       2.61136998     3.54666198     7.14772401     1.09899146    -1.25806953    -0.76543672
O       0.13725202     0.58044500     1.81865399     0.34726052    -0.28684806     0.32262497
O       4.99807801     4.82920401     7.01231401     0.30478151    -0.12973071     1.13418087
O       2.54322697     0.58619398     6.66981001    -0.93575309     1.08750351    -0.49173883
O       2.86266599     4.44351402     2.40307898     0.41046829     1.22977992    -2.01851085
