# total energy = -4967.18849454 eV

CRYSTAL
PRIMVEC
        5.04297431     0.00000000     0.00000000
       -0.00000714     2.71544804     0.00000000
       -2.52151516    -1.35778512     5.44036942
PRIMCOORD
6 1
Ti     -0.00021585     2.03667960     1.36009214    -0.01434110    -0.01711533    24.82496977
Ti      2.52166748    -0.67901652     4.08027685     0.01434110     0.01711533   -24.82496977
O       0.00005353     0.67885138     0.88619166     0.01183376     0.01467329   -17.12099876
O       2.52139800     0.67881160     4.55417743    -0.01183376    -0.01467329    17.12099876
O      -0.00002059    -0.67886978     3.60637637    -0.00189850    -0.00008562    -1.78372713
O       2.52147201     2.03653276     1.83399272     0.00189850     0.00008562     1.78372713
