# total energy = -19932.88034007 eV

CRYSTAL
PRIMVEC
        4.90877977     0.00000000     0.00000000
        2.00941766     4.82253744     0.00000000
        0.00000000     0.00000000     8.97397600
PRIMCOORD
24 1
Ti      2.96997565     2.85783131     3.32928109     4.28008668    -3.76297157     1.26456362
Ti      3.94822185     1.96470627     5.64469501    -4.28008668     3.76297157    -1.26456362
Ti      5.05214482     1.96470791     1.15767108    -8.73366530     1.87662087     2.45255642
Ti      1.86605272     2.85782987     7.81630506     8.73366530    -1.87662087    -2.45255642
Ti      1.96526692     0.44656257     1.15770706     4.28044304    -3.76258179    -1.26465130
Ti      4.95293061     4.37597515     7.81626909    -4.28044304     3.76258179     1.26465130
Ti      0.86134387     0.44656080     5.64465898     8.73427208    -1.87604597     2.45288346
Ti      6.05685366     4.37597693     3.32931706    -8.73427208     1.87604597    -2.45288346
O       2.26120990     1.69809747     4.57935128    -1.45977496    -0.04003980    -1.24467819
O       4.65698756     3.12444012     4.39462482     1.45977496     0.04003980     1.24467819
O       1.60831705     1.69811695     0.09239212     1.91315034    -0.41357881    -1.51913789
O       5.30988052     3.12442071     8.88158368    -1.91315034     0.41357881     1.51913789
O       3.65227881     0.71317129     0.09236298     1.45978370     0.04012696    -1.24462445
O       3.26591870     4.10936629     8.88161282    -1.45978370    -0.04012696     1.24462445
O       4.30517171     0.71315184     4.57938036    -1.91259987     0.41326282    -1.51869078
O       2.61302570     4.10938581     4.39459569     1.91259987    -0.41326282     1.51869078
O       1.40058907     2.93334079     2.42409481    -0.06529987    -3.06305815    -2.88718126
O       5.51760838     1.88919680     6.54988128     0.06529987     3.06305815     2.88718126
O       3.41990417     1.88915192     2.06292178     2.36474267    -2.92107792    -3.86824208
O       3.49829328     2.93338567     6.91105417    -2.36474267     2.92107792     3.86824208
O       0.39588031     0.52207190     2.06289309    -0.06543409    -3.06282186     2.88753813
O       6.52231719     4.30046567     6.91108281     0.06543409     3.06282186    -2.88753813
O       2.49358453     0.52211683     6.54990987    -2.36423359     2.92114374    -3.86858430
O       4.42461292     4.30042076     2.42406617     2.36423359    -2.92114374     3.86858430
