# total energy = -4918.52787384 eV

CRYSTAL
PRIMVEC
        6.24667094     0.00000000     0.00000000
       -0.00000773     2.08222365     0.00000000
       -3.12337522    -1.04124731     7.08634829
PRIMCOORD
6 1
Ti     -0.00026734     1.56171739     1.77158664    -0.03981818    -0.02469931    76.02133303
Ti      3.12355515    -0.52074111     5.31476061     0.03981818     0.02469931   -76.02133303
O       0.00006595     0.52053334     1.15430804     0.03890723     0.02483018   -73.18357688
O       3.12322169     0.52044288     5.93203926    -0.03890723    -0.02483018    73.18357688
O      -0.00002866    -0.52062079     4.69748202    -0.00116651     0.00009744    -0.73588728
O       3.12331618     1.56159695     2.38886529     0.00116651    -0.00009744     0.73588728
