# total energy = -19072.89728641 eV

CRYSTAL
PRIMVEC
        7.60600008     0.00000000     0.00000000
        0.00000000     7.60600008     0.00000000
       -1.89786986    -1.89786986     4.85670466
PRIMCOORD
22 1
Ti      3.69344098     6.51569503     1.29015102    -1.09603546    -1.43839905     0.22392543
Ti      3.69717200     2.67618498     1.18561999    -0.15024941     2.58097098    -0.49920069
Ti     -0.02692099     6.69993999     1.20598702     1.41814801    -0.43007347    -1.88056854
Ti     -0.13327398     2.94878900     1.10873800    -0.16807205    -0.10979206     0.95768795
Ti      5.59558824     2.98087222     3.49181879     2.76296813    -0.45525718     1.04355177
Ti     -1.35837175    -0.71213579     3.65543881    -1.20320705    -1.19046543     1.02721677
Ti      1.88789524     2.64068825     3.60856381    -1.80484747     0.75343198     0.20635142
Ti      2.05024725    -1.20260880     3.89468281    -1.46366324     2.08815666    -3.25498130
O       3.42137302     4.63351500     0.68340601     1.12387075    -0.07479650    -0.11539475
O       3.82794202     0.85840800     0.93104303     0.20982395    -0.34367100     0.90655306
O       0.04170800     4.73869898     0.65000900    -0.54580401     3.05756550    -0.27447462
O       7.11796599     1.17373800     0.45734303     0.11696030    -1.38783444     2.24817832
O      -1.10467180     5.10347822     4.18605182    -1.32257159    -0.24675272     0.26770747
O       5.53401820     1.06085825     3.94579683     0.94976020     1.50275893    -1.37982416
O       1.80159321     4.68847720     4.27362780     0.61965769    -1.51026810    -1.25142528
O       1.99590424     0.81222220     3.91372980     0.18041489     0.03344929     0.63077823
O       3.78551825     2.93189422     3.09975581    -1.44895189     0.10322854     1.01890439
O       0.00391925     3.06339223     3.06191879     0.37138365    -1.49398427     0.16368394
O       5.44014301     6.68460798     2.00865201     1.39043254    -0.74698056    -0.79408525
O       5.62342598     3.43100500     1.63399801    -0.13902680    -1.41546712    -0.39242042
O       1.75109599     6.34755599     1.88679800     0.84231222     1.20064212     0.84744800
O       1.88255299     2.68825901     1.46541198    -0.64330362    -0.47646210     0.30038801
