# total energy = -4985.14913068 eV

CRYSTAL
PRIMVEC
        3.84498920     0.00000000     0.00000000
        0.00000000     2.90069585     0.00000000
        0.00000000    -0.00007669     5.08559370
PRIMCOORD
6 1
Ti      1.92249455     1.45030943     2.54279690     0.00000000     0.00000000     0.00000000
Ti      0.00000000     0.00000000     0.00000000     0.00000000     0.00000000     0.00000000
O       1.92249455     0.56528789     0.99110733    -0.00000000    -1.66986733    -0.47822614
O       1.92249455     2.33533096     4.09448647    -0.00000000     1.66986733     0.47822614
O       0.00000000     0.88499104     3.53390528     0.00000000     1.67003368    -0.47864471
O       0.00000000     2.01562781     1.55168852     0.00000000    -1.67003368     0.47864471
