# total energy = -19925.31691416 eV

CRYSTAL
PRIMVEC
        7.08301724     0.00000000     0.00000000
        0.00002992     5.57191434     0.00000000
        0.00000000     0.00000000    11.27725459
PRIMCOORD
24 1
Ti      2.56727083     3.30191132     4.18378102     0.48260627    -0.67062366     1.01556659
Ti      4.51577640     2.27000321     7.09347363    -0.48260627     0.67062366    -1.01556659
Ti      6.10865712     2.27000515     1.45480125     0.48135723     0.66980810    -1.01547480
Ti      0.97439011     3.30190964     9.82245353    -0.48135723    -0.66980810     1.01547480
Ti      2.56725599     0.51595428     1.45484646     0.48260627    -0.67062366    -1.01556659
Ti      4.51579123     5.05596044     9.82240831    -0.48260627     0.67062366     1.01556659
Ti      0.97437527     0.51595215     7.09342842    -0.48135723    -0.66980810    -1.01547480
Ti      6.10867196     5.05596257     4.18382623     0.48135723     0.66980810     1.01547480
O       2.24183025     1.96196580     5.75469670     0.84478485     1.34213383    -1.09647897
O       4.84121704     3.60994873     5.52255795    -0.84478485    -1.34213383     1.09647897
O       1.29974092     1.96198827     0.11610568    -0.84507076     1.34285348    -1.09710967
O       5.78330643     3.60992632    11.16114866     0.84507076    -1.34285348     1.09710967
O       4.84120220     0.82399150     0.11606909    -0.84478485    -1.34213383    -1.09647897
O       2.24184509     4.74792303    11.16118524     0.84478485     1.34213383     1.09647897
O       5.78329160     0.82396909     5.75473329     0.84507076    -1.34285348    -1.09710967
O       1.29975563     4.74794551     5.52252136    -0.84507076     1.34285348     1.09710967
O       0.25736061     3.38915415     3.04626781    -1.35543492     0.27712543     0.08132659
O       6.82568668     2.18276038     8.23098684     1.35543492    -0.27712543    -0.08132659
O       3.79887687     2.18270841     2.59239538    -1.35579899    -0.27694699    -0.08141016
O       3.28417042     3.38920618     8.68485908     1.35579899     0.27694699     0.08141016
O       0.25734578     0.60319698     2.59235936    -1.35543492     0.27712543    -0.08132659
O       6.82570151     4.96871762     8.68489510     1.35543492    -0.27712543     0.08132659
O       3.28415559     0.60324895     8.23102280     1.35579899     0.27694699    -0.08141016
O       3.79889170     4.96866558     3.04623179    -1.35579899    -0.27694699     0.08141016
