# total energy = -4986.11699201 eV

CRYSTAL
PRIMVEC
        3.47058413     0.00000000     0.00000000
        0.51766807     3.43175961     0.00000000
       -1.99415738    -1.71590671     4.44181857
PRIMCOORD
6 1
Ti      0.38812485     2.57395088     1.11045440     0.00142928    -0.00118014     0.00145653
Ti      1.60597034    -0.85809767     3.33136369    -0.00142928     0.00118014    -0.00145653
O       0.12945352     0.85793477     0.72353583     0.00079961     0.00289583     1.70393935
O       1.86464152     0.85791830     3.71828226    -0.00079961    -0.00289583    -1.70393935
O      -0.12943229    -0.85791650     2.94444512     0.00288401     0.00061629     1.70714526
O       2.12352728     2.57376957     1.49737297    -0.00288401    -0.00061629    -1.70714526
