# total energy = -19073.53993278 eV

CRYSTAL
PRIMVEC
        5.93400000     0.00000000     0.00000000
        0.00000000     9.29699974     0.00000000
        0.00000000     0.00000000     4.64899994
PRIMCOORD
22 1
Ti      4.43590302     6.98272702     2.38790398     0.65376956     0.12629186    -0.27709920
Ti      4.36383701     2.23622702     2.27213302     0.86148674    -0.07518088    -0.45953575
Ti      1.53194501     7.15089601     2.48376698    -0.82511282     0.20394049    -0.98355814
Ti      1.63069198     2.47209201     2.17008002    -1.56785698     0.18246843    -0.27438926
Ti      2.98473400     4.64474700     4.63347902     0.02052024     0.26635456    -0.36330035
Ti      2.94078303     0.04118798     0.12853498     0.49198874     1.08886671     0.18205808
Ti      5.80404402     4.49200703     4.46295498     1.00974869    -0.12739795     0.97792871
Ti      5.93193198     9.16300900     4.63566801    -0.84559295    -0.71946564     1.51956547
O       4.57883797     5.52025700     0.89522799    -0.26010266     0.17279722     0.05599710
O       4.43335000     0.74253802     0.97709499     1.06267255     1.67065820     0.43825318
O       1.45210698     0.93080601     0.96002300    -0.69568601    -0.70397345    -0.73997353
O       4.28182100     8.35079399     3.91415102     1.76713014    -0.72916281    -1.13582638
O       4.33539501     3.84230399     3.56877000     0.68245768    -0.78056381    -0.72289343
O       1.62269399     8.29441301     3.84170100    -0.97133408     1.55118131     1.37785649
O       1.63617499     3.65258601     3.63237001    -1.49741489     1.36429675     0.57723473
O       2.84966701     6.02728803     3.11618502     0.78912662    -0.92290836     0.92491640
O       2.96223000     1.50576900     3.24088802    -0.19763409    -1.09555878     0.45413463
O       0.07487800     6.34629401     3.34452601    -0.65029471    -2.72994924     0.62287980
O       3.06264598     7.99477603     1.57106201    -0.91124995    -0.51085550    -0.55185587
O       3.07665399     3.06528298     1.15653900     0.10279711     1.08497380     0.21792807
O       5.89994200     8.14879698     1.69810302     0.26091230    -0.62914326    -1.43360112
O       5.84787201     2.99864702     1.32463501     0.71966901     1.31233036    -0.40671987
