# total energy = -19924.63589183 eV

CRYSTAL
PRIMVEC
        7.09207492     0.00000000     0.00000000
        0.00002374     3.63427631     0.00000000
        0.00000000     0.00000000    10.71499824
PRIMCOORD
24 1
Ti      2.57055024     2.15366884     3.97518792    -0.25565105     0.69248781     0.68924077
Ti      4.52154859     1.48060763     6.73981042     0.25565105    -0.69248781    -0.68924077
Ti      6.11646630     1.48060892     1.38226844    -0.25433310    -0.69234872    -0.68875174
Ti      0.97563258     2.15366772     9.33273006     0.25433310     0.69234872     0.68875174
Ti      2.57053842     0.33653074     1.38231141    -0.25565105     0.69248781    -0.68924077
Ti      4.52156046     3.29774584     9.33268709     0.25565105    -0.69248781     0.68924077
Ti      0.97562071     0.33652935     6.73976745     0.25433310     0.69234872    -0.68875174
Ti      6.11647812     3.29774723     3.97523089    -0.25433310    -0.69234872     0.68875174
O       2.24469494     1.27969052     5.46778159     3.47880080    -0.41703797     0.89915830
O       4.84740394     2.35458595     5.24721675    -3.47880080     0.41703797    -0.89915830
O       1.30140090     1.27970515     0.11031690    -3.47810789    -0.41765452     0.89890634
O       5.79069804     2.35457132    10.60468112     3.47810789     0.41765452    -0.89890634
O       4.84739207     0.53744779     0.11028215    -3.47880080     0.41703797     0.89915830
O       2.24470675     3.09682868    10.60471592     3.47880080    -0.41703797    -0.89915830
O       5.79068622     0.53743317     5.46781634     3.47810789     0.41765452     0.89890634
O       1.30141255     3.09684336     5.24718200    -3.47810789    -0.41765452    -0.89890634
O       0.25768603     2.21057290     2.89438833    -0.03557123     0.01459024     0.75402128
O       6.83441280     1.42370362     7.82061001     0.03557123    -0.01459024    -0.75402128
O       3.80373236     1.42366970     2.46314489    -0.03398100    -0.01448380    -0.75449179
O       3.28836646     2.21060683     8.25185329     0.03398100     0.01448380     0.75449179
O       0.25767421     0.39343469     2.46311068    -0.03557123     0.01459024    -0.75402128
O       6.83442467     3.24084178     8.25188750     0.03557123    -0.01459024     0.75402128
O       3.28835464     0.39346862     7.82064417     0.03398100     0.01448380    -0.75449179
O       3.80374423     3.24080785     2.89435412    -0.03398100    -0.01448380     0.75449179
