# total energy = -19516.60851479 eV

CRYSTAL
PRIMVEC
        5.17600016     0.00000000     0.00000000
        0.00000000     5.50899976     0.00000000
        0.00000000     0.00000000     9.26300011
PRIMCOORD
23 1
Ti      1.95565602     3.23750202     3.37568603    -1.40840687    -0.43541802     2.61152187
Ti      3.31735000     2.31136701     5.88205199     0.54435391    -0.63020667    -1.85028145
Ti      4.37916601     2.03836500     1.59668302     1.28652908     0.56242234    -2.76495585
Ti      0.95925802     3.28165102     7.72351903    -2.89462512     0.25526204     2.02287016
Ti      1.83829901     0.20649602     1.30328800     1.60918490    -1.33634885    -0.59087444
Ti      3.26563499     5.29519199     7.85226700     0.80440463    -0.23745689     1.85924612
Ti      0.70840302     0.61955601     5.90877301    -0.78543837    -1.12480097    -2.27472214
Ti      4.48039698     4.89652599     3.45852899     1.15721334    -0.19431608     2.96323786
O       1.71256803     1.77528802     4.78124499     0.85464761     1.22077309    -1.10174408
O       3.65211901     3.50119300     4.47013301    -0.43536146    -0.04199924    -0.57793433
O       5.07477802     2.64509402     9.20134799    -0.04607984    -0.77699383     0.07783092
O       3.49337002     0.40158801     0.42049102     1.35427021     1.75323487    -1.46223576
O       1.69349198     4.66932400     9.04855600    -0.82264996    -0.24129426    -0.24817737
O       4.12460498     0.71492900     4.97646398     0.46935531    -0.57961788    -1.15024179
O       0.98276000     4.74566798     4.48806301    -0.26345384    -0.46624351    -0.28139706
O       0.34711302     3.34973501     2.37515700    -0.76425453     0.42284661     0.67243526
O       0.00553900     2.34996398     6.39312101    -0.68311125     0.07172635     1.47630253
O       2.65287001     1.88437299     2.22432201    -0.57735300    -0.11570328    -0.42426869
O       2.48764098     3.85513501     6.89639498     1.43260250    -0.47522206    -0.90332452
O       0.19499499     0.61307597     2.20254398    -0.05029003     0.34045892    -0.04855890
O       5.01808901     4.69705802     7.12396798    -0.28881007     1.59542692     0.72766360
O       2.28439400     1.18159898     7.07987597    -0.61132757    -0.11601747     1.49111466
O       2.85413200     4.55749901     2.38039998     0.11860092     0.54948866    -0.22350737
