# total energy = -19516.29295798 eV

CRYSTAL
PRIMVEC
        5.17600016     0.00000000     0.00000000
        0.00000000     5.50899976     0.00000000
        0.00000000     0.00000000     9.26300011
PRIMCOORD
23 1
Ti      1.97572898     3.22257600     3.41512698    -1.44136739    -1.32059492     3.58723506
Ti      3.45559301     2.28971599     5.83672399    -2.30622563     0.40449330    -2.08418019
Ti      4.26643702     2.03028599     1.56492900     2.29775615     0.02625277    -1.03926291
Ti      0.75319602     3.34202099     7.81694802     1.02967500     1.56193212     0.90721743
Ti      1.93133398     0.15918599     1.38483300    -0.30402406    -0.42427306    -1.22673497
Ti      3.11868501     5.33714701     7.84727702     1.14913467    -1.28767810     1.10224056
Ti      0.72584402     0.56891402     5.91920299    -0.66582598    -0.35300205    -3.10209265
Ti      4.58028803     4.84639798     3.34589298     0.99020033    -0.18992823     3.53253945
O       1.95651302     1.84445101     4.68641198    -1.15953145     0.05999594     0.94717084
O       3.59602802     3.72040600     4.43691401     0.35153344    -1.83358933     1.16002613
O       5.10596699     2.52170200     9.25047803     0.49146604     0.85212818    -1.19718475
O       3.44700398     0.68437901     0.37601700    -0.08740854    -0.39415643    -1.54605016
O       1.65107699     4.74748899     8.91957698    -0.17550640    -0.16720584     1.77509157
O       4.21823702     0.72720802     4.83314400     0.97490200     0.48141971     0.12463222
O       1.08008098     4.74353201     4.51133702    -0.60287069    -0.22856858    -0.33914920
O       0.38290202     3.22271401     2.49603902    -1.58030703     0.50577603    -0.41335718
O       0.01076701     2.47911001     6.40859601     0.39961566    -0.94562458     0.02605763
O       2.71453001     1.58641598     2.38430102    -1.30481066     1.32315728     0.62199894
O       2.51398797     3.81405598     6.84345598    -0.01408374    -0.70196413     0.65107684
O       0.14652701     0.57854398     2.15731399     0.90080278     0.47392468    -1.13333729
O       4.98769302     4.97472802     7.19639498    -0.60468744    -0.05456294     0.70874130
O       2.19999499     1.17033402     7.13465000     0.14635933     1.27736052    -0.59662008
O       2.85754403     4.39695197     2.33728997     1.51520359     0.93470767    -2.46605831
