# total energy = -4876.58846797 eV

CRYSTAL
PRIMVEC
        5.67619871     0.00000000     0.00000000
       -0.00000702     1.89206624     0.00000000
       -2.83813548    -0.94615623     6.43919320
PRIMCOORD
6 1
Ti     -0.00024292     1.41909480     1.60979790    -0.06458408    -0.04239262   120.16519757
Ti      2.83829898    -0.47318485     4.82939435     0.06458408     0.04239262  -120.16519757
O       0.00005993     0.47299605     1.04889178     0.06265292     0.04177350  -116.08207135
O       2.83799596     0.47291385     5.39030052    -0.06265292    -0.04177350   116.08207135
O      -0.00002604    -0.47307551     4.26848822    -0.00087855    -0.00002185    -0.44832445
O       2.83808183     1.41898535     2.17070408     0.00087855     0.00002185     0.44832445
