# total energy = -19925.89696534 eV

CRYSTAL
PRIMVEC
        7.44014453     0.00000000     0.00000000
        0.00002807     4.75113803     0.00000000
        0.00000000     0.00000000    11.36317650
PRIMCOORD
24 1
Ti      2.69671096     2.81551998     4.21565745     0.50229990    -0.17387503     1.66703295
Ti      4.74346115     1.93561799     7.14751917    -0.50229990     0.17387503    -1.66703295
Ti      6.41665522     1.93561959     1.46588546     0.50191295     0.17373850    -1.66792898
Ti      1.02351696     2.81551856     9.89729122    -0.50191295    -0.17373850     1.66792898
Ti      2.69669717     0.43995102     1.46593104     0.50257398    -0.17310318    -1.66735048
Ti      4.74347495     4.31118707     9.89724570    -0.50257398     0.17310318     1.66735048
Ti      1.02350310     0.43994930     7.14747358    -0.50220580    -0.17276637    -1.66696738
Ti      6.41666902     4.31118879     4.21570297     0.50220580     0.17276637     1.66696738
O       2.35486247     1.67295642     5.79854201     1.00869582     1.11256972    -1.39684744
O       5.08530971     3.07818149     5.56463461    -1.00869582    -1.11256972     1.39684744
O       1.36527281     1.67297561     0.11699028    -1.00831659     1.11287233    -1.39772085
O       6.07489943     3.07816237    11.24618598     1.00831659    -1.11287233     1.39772085
O       5.08529592     0.70261241     0.11695340    -1.00905578    -1.11333410    -1.39734444
O       2.35487626     4.04852550    11.24622286     1.00905578     1.11333410     1.39734444
O       6.07488558     0.70259329     5.79857883     1.00898122    -1.11345469    -1.39795122
O       1.36528648     4.04854468     5.56459773    -1.00898122     1.11345469     1.39795122
O       0.27033463     2.88991148     3.06947746    -1.98194538     0.69200907     0.55226956
O       7.16983754     1.86122643     8.29369910     1.98194538    -0.69200907    -0.55226956
O       3.99041546     1.86118226     2.61214694    -1.98236138    -0.69188849    -0.55273468
O       3.44975665     2.88995571     8.75102944     1.98236138     0.69188849     0.55273468
O       0.27032078     0.51434241     2.61211067    -1.98215749     0.69148560    -0.55190961
O       7.16985134     4.23679550     8.75106571     1.98215749    -0.69148560     0.55190961
O       3.44974286     0.51438664     8.29373531     1.98223874     0.69142595    -0.55205076
O       3.99042926     4.23675127     3.06944119    -1.98223874    -0.69142595     0.55205076
