# total energy = -39032.26895584 eV

CRYSTAL
PRIMVEC
        7.60600008     0.00000000     0.00000000
        0.00000000     7.60600008     0.00000000
       -3.79573973    -3.79573973     9.71340985
PRIMCOORD
46 1
Ti      1.86492345     4.81250243     6.23856363    -0.21476587    -0.33156187     0.05895953
Ti      3.77081501     6.73192500     1.40601400    -1.40630139     0.04701830    -2.39455899
Ti      1.76847047     0.65510143     6.02030162     1.46900676    -1.31960479     3.12537271
Ti      3.72978202     2.70807701     1.04360501     0.17456691     0.08409979     1.49567168
Ti     -2.00111753     4.60309345     6.14273360     1.88598637     0.91629266    -1.60998092
Ti     -0.09201699     6.76529301     1.31182501     1.13981622    -0.93570038     0.59924466
Ti     -1.76661454     1.14033845     6.12799061     0.57801377    -3.20842555    -1.54438897
Ti      0.09123598     2.97729800     0.95090400    -0.84474320     0.93356173     1.83282751
Ti      3.99984943     1.18893343     8.30272962    -1.80228793    -0.79884333     2.17602646
Ti      5.56749898     2.81028601     3.29801498     1.91776085     0.25541657     1.06081879
Ti      3.92278243    -2.91195154     8.56585760    -0.13332152     0.29250320    -0.21146277
Ti      5.61177699    -0.89459901     3.75347403     2.35871575     0.19740937     1.30510942
Ti      0.17662846     1.04871945     8.59394660    -0.69792981     1.66757648    -0.34494216
Ti      1.83405903     2.64981301     3.44338801    -1.21379640     2.23667417    -2.78273735
Ti     -0.02673853    -2.82439456     8.48871663     0.87279986    -1.27993188     2.08491630
Ti      1.95425598    -1.39907501     3.58817900    -2.53251621    -0.36303502     0.44121175
O       1.34849847    -1.13343856     5.80794961     1.33669492     0.67956236    -0.85615582
O       3.39065100     0.92455701     1.10531898     0.53348739     0.57572420    -1.24599485
O      -1.95614657     2.72404446     5.42926365    -0.28838944     4.58835692     0.98353526
O      -0.25270399     4.84073901     0.64686701     0.36587737    -0.47765844    -0.36862408
O      -1.60068154    -0.83491353     5.88103164    -1.23787376    -0.24326913    -1.37166245
O       0.30274400     0.95851098     1.04450598    -1.05748947    -0.49249628    -1.39615427
O       4.11696344     2.88634545     8.92654662    -1.02272428     0.06726291     0.05712711
O       5.53773700     4.85501399     4.21142100     0.25593722    -0.26873026    -0.84351498
O      -3.33954153    -1.16498456     8.89966463    -0.33928521     2.14490838    -1.22588444
O       5.68398799     1.09105601     4.03724501    -0.34082505    -2.04054084    -1.35640474
O      -0.04032754     2.91305842     9.04912365     1.16368249    -0.54295651     1.10616587
O       1.69709901     4.23226699     4.33820600     1.05204335     1.21993157     0.88889343
O      -0.03729953    -0.80920557     8.97269262    -0.02688166    -0.89441050    -1.93782549
O       1.95095597     1.10997500     4.37139599     0.34037305     0.43272351    -2.80349902
O       1.87867147     1.07685644     8.23486962     1.67090169    -0.55283495    -0.50076315
O       3.74450902     2.99964299     2.90603502    -0.11452752     0.12794560     2.22879683
O       2.04898542    -2.77266553     8.23278863    -0.57182050    -0.33990588    -0.08814259
O       3.77214102    -0.83765499     3.37711602    -1.71142974    -0.71708094     0.43132123
O      -1.78278456     1.13278545     7.96936562    -0.51211097    -0.24339666     0.83779839
O      -0.05181301     2.93974002     3.04821299     0.27615715    -0.67138856    -0.36138360
O      -1.72780754     4.38730544     8.07880260    -3.63362600     1.17088236     0.13168167
O       0.03823602    -0.93589701     3.29274501     0.07772628    -0.35691656    -0.54646093
O       3.81744743     4.75215347     6.43489162    -0.71407275    -0.22235705     0.72225786
O       5.60361099    -0.63263500     1.73343301     0.94961802    -0.74971648     0.18591397
O       3.61737345     1.15800747     6.47015662     1.25276945    -0.23297829     0.27366935
O       5.66749999     2.89815102     1.29718098    -0.33217097    -0.52258540     0.97765823
O      -0.00685957     4.47410342     6.74129763     1.79954148    -0.24121096    -2.96277943
O       1.81265000     6.37034702     1.46426398     1.55112937    -0.50763725     2.32303036
O       0.18250445     1.25795444     6.42566965    -2.03486976     0.98403328     0.32390101
O       1.90509700     3.19458099     1.35699499    -0.23884632    -0.06670910     1.10141318
