# total energy = -4988.80612340 eV

CRYSTAL
PRIMVEC
        4.32988435     0.00000000     0.00000000
       -0.00000807     3.54263245     0.00000000
       -2.16497106    -1.77135671     5.07428377
PRIMCOORD
6 1
Ti     -0.00018793     2.65710637     1.26857108    -0.00177689    -0.00347253     4.11508762
Ti      2.16509315    -0.88583085     3.80571286     0.00177689     0.00347253    -4.11508762
O       0.00004467     0.88565066     0.82655942     0.00037718     0.00131666    -0.84484759
O       2.16486044     0.88562476     4.24772457    -0.00037718    -0.00131666     0.84484759
O      -0.00002094    -0.88564260     3.36370120    -0.00189182    -0.00025403    -1.16313356
O       2.16492594     2.65691801     1.71058274     0.00189182     0.00025403     1.16313356
