# total energy = -19961.27506672 eV

CRYSTAL
PRIMVEC
        7.60600008     0.00000000     0.00000000
        0.00000000     7.60600008     0.00000000
       -1.89786986    -1.89786986     4.85670466
PRIMCOORD
24 1
Ti      3.79770203     6.78309797     1.12791702     1.59655487    -0.71261262    -0.17065498
Ti      3.82590902     2.82301701     1.17513598    -0.87782148     0.79105057     0.05518335
Ti     -0.02906802     6.63081399     1.23421000    -1.32179306    -0.23865143    -0.10893922
Ti     -0.08283799     2.77185700     1.31692701     0.31716189     0.44545382    -0.72993440
Ti      5.64152823     2.82281825     3.71018479    -0.43066251    -0.17660220     0.31721331
Ti      5.66908022    -0.94596175     3.64973883     0.50714900     0.10530651    -0.37636619
Ti      1.93887020     2.81888123     3.64486082     0.66772705     0.10772643     0.11735316
Ti      1.97449420    -0.93654975     3.47370680    -0.76526009     0.11294140     1.53808436
O       3.99151600     4.76047097     0.87167500    -0.81030866     0.83890165    -1.19116168
O       3.95124598     0.99632201     0.71041802    -0.73532626    -0.59172650    -0.02550998
O      -0.25485102     4.72051301     0.82848498     0.73011515     0.28468525     0.45554411
O      -0.07578898     0.92551101     0.73248498     0.22194413     0.05546874     1.27920040
O       5.51571825     4.71685523     4.09060984     0.61042614     0.11341295    -0.25900094
O       5.79055820     0.92195023     4.21347881     0.14794930     0.16437146    -0.74755521
O       2.17850621     4.87779322     3.94639279    -1.05654998    -1.94147723     0.92851131
O       1.86172822     0.96775020     4.01191081    -0.27639009     0.08321070     0.34277446
O       3.82862725     2.57057221     3.29060480    -0.58409726     0.58049052    -0.26022350
O       3.79254223    -0.90523177     3.17132280     0.75735857     0.54727082    -0.44296833
O       0.02009223     2.88722420     3.22731679    -0.28550414     0.10398625     0.48615465
O      -0.00621979    -1.01745275     3.17417882     0.06374590    -0.25283415     0.40103645
O       5.69924502     6.91111500     1.71815201    -0.23885763    -0.57819889    -0.57524341
O       5.58521901     2.82196802     1.72513397     2.38687602    -0.20668875    -0.11807693
O       1.90369399     6.70366402     1.58509103     0.18154438     0.07594450    -1.18728369
O       1.96274398     2.78892101     1.65306199    -0.80598072     0.28856993     0.27186315
