# total energy = -19958.20712644 eV

CRYSTAL
PRIMVEC
        5.93400000     0.00000000     0.00000000
        0.00000000     9.29699974     0.00000000
        0.00000000     0.00000000     4.64899994
PRIMCOORD
24 1
Ti      4.40621501     6.94028002     2.17364498     1.84624713    -0.72984827     0.92047327
Ti      4.46152800     2.34339102     2.35676798    -0.57600291     0.12888791     0.31894829
Ti      1.50206502     6.90905798     2.40276799    -1.39599332    -0.96964358    -0.24907777
Ti      1.45561702     2.40986701     2.36616898     0.99973784    -0.56736040    -0.62936541
Ti      2.99967199     4.91256302     4.63569003    -1.12000381    -3.96016600     1.86419395
Ti      3.01923302     9.07072498     4.61640998     0.28818889     3.71175054    -0.83192265
Ti      5.91399901     4.65380202     4.48827902     0.94924675    -2.75133826     0.19802233
Ti      5.93130199     9.08856000     0.21205402     0.70765296     4.05548017    -0.46025669
O       4.60220200     5.57976103     0.78242799    -0.76702155     1.62042654     1.54242618
O       4.33278399     0.77180999     0.93329002     0.21339521    -0.31009264    -0.22465896
O       1.41063102     5.59438098     0.89833701     0.41006077     1.20280544     0.80167078
O       1.39482302     1.02809398     0.95633299    -0.06852224    -2.17574749    -0.29750400
O       4.58300800     8.17987000     3.84667902    -1.89042538     0.94306171    -0.85117559
O       4.29159300     3.73772698     3.76438301     1.43830547     0.94252563     0.03457235
O       1.37575798     8.55821401     3.69438498     1.54631858    -1.69004356    -0.47550514
O       1.63399198     3.91968601     3.74660599    -1.65633535     0.01337103    -0.24209722
O       3.11839698     5.93766302     3.09554700    -1.03974062     2.06184809    -0.78650358
O       2.94439498     1.50450500     3.16944602     0.08424351    -1.12129630     0.61691715
O       0.03740701     6.25860701     3.29801201     0.53051520    -1.58418940    -0.30216130
O       0.05783399     1.59284802     3.41339498    -1.37469044     0.27945845    -1.35982380
O       3.04375399     7.74519201     1.27712299    -1.53353196    -0.03785797     0.86003021
O       2.85405500     3.38184702     1.44516502     0.83277137     0.02975385    -0.16033585
O       0.01972498     7.74963001     1.48559999     0.86274993     0.95949980    -0.58892657
O       5.76582001     3.30727299     1.33852602     0.71283373    -0.05128530     0.30205974
