# total energy = -19071.48851284 eV

CRYSTAL
PRIMVEC
        5.17600016     0.00000000     0.00000000
        0.00000000     5.50899976     0.00000000
        0.00000000     0.00000000     9.26300011
PRIMCOORD
22 1
Ti      1.50036102     3.22366298     3.55550802    -1.19677672     0.45034637     1.39226830
Ti      4.21545899     2.64998700     5.91432101    -0.02297282    -0.38688201    -1.14282930
Ti      4.11225102     2.05030398     1.44317400     1.08285521    -0.08102886     0.70476843
Ti      1.23869901     3.21534998     8.13213800    -1.09544796    -0.94126682     0.33742630
Ti      1.58676698     0.41734802     1.24460198    -0.88333496    -0.00479151     0.22909232
Ti      3.29086600     5.17531001     8.03306798     1.81563428     0.26339110    -1.46465671
Ti      1.72000201     0.34155201     5.86059502    -3.26926121    -0.56075472    -2.44139423
Ti      3.93913697     4.92329802     3.51810101     2.53873520     0.02399663    -0.05792440
O       3.30774501     3.37126898     4.30461700    -1.54987107    -3.54633033     2.91280000
O       0.39773502     1.98924899     0.18639999     0.90118973    -0.16503275    -0.27002275
O       4.66911498     3.71880598     7.35956398    -0.48009199     0.29323314     0.65999831
O       3.28303101     0.66015899     0.33489501     0.61469314     2.30056663    -0.16684460
O       2.16795902     4.37715201     0.02300302    -1.61027479    -2.12094569     0.91895658
O       3.19930601     0.13674300     4.99062598     1.23525072     2.29917489    -0.00360186
O       0.46321001     4.68044001     4.63051801     0.55444729     0.21407450     0.78446778
O       4.90463701     3.42750401     2.72421602     1.01135769    -1.42634238    -3.07156773
O       0.81831499     2.09035603     5.29500900    -1.39268585    -0.12003431    -0.40916011
O       2.36203700     1.74894198     2.24589302    -0.73641436     2.39641507     1.01393162
O       2.07448198     4.24412400     6.80742198    -0.10448839    -0.40676461    -0.11988390
O       4.79838102     0.67328899     2.36630302     1.60465822     0.01672040    -0.36702666
O       2.61515597     1.40012998     7.00689502     1.76387461     1.77111098     2.86382483
O       2.20103599     4.81077499     2.77046600    -0.78107598    -0.26885599    -2.30262197
