# total energy = -4981.34719946 eV

CRYSTAL
PRIMVEC
        2.77094745     0.00000000     0.00000000
        1.47442630     4.08363463     0.00000000
       -0.00000958    -0.00005753     4.41177726
PRIMCOORD
6 1
Ti      2.12268207     2.04178850     2.20588863     0.00000000     0.00000000     0.00000000
Ti      0.00000000     0.00000000     0.00000000     0.00000000     0.00000000     0.00000000
O       1.67281580     0.79582903     0.85979042    -7.57296477     3.29366716     4.16686580
O       2.57254835     3.28774798     3.55198688     7.57296477    -3.29366716    -4.16686580
O       0.44986225     1.24593623     3.06567993     7.57349519    -3.29483393     4.16791506
O       1.02455455     2.83764076     1.34609738    -7.57349519     3.29483393    -4.16791506
