# total energy = -19925.06675816 eV

CRYSTAL
PRIMVEC
        7.19688391     0.00000000     0.00000000
        0.00002409     3.68798483     0.00000000
        0.00000000     0.00000000    10.87334796
PRIMCOORD
24 1
Ti      2.60853866     2.18549646     4.03393454    -0.16889480     0.54401889     1.05807671
Ti      4.58836950     1.50248853     6.83941353     0.16889480    -0.54401889    -1.05807671
Ti      6.20685743     1.50248984     1.40269605    -0.16822606    -0.54429734    -1.05704312
Ti      0.99005079     2.18549532     9.47065218     0.16822606     0.54429734     1.05704312
Ti      2.60852667     0.34150410     1.40273966    -0.16889480     0.54401889    -1.05807671
Ti      4.58838155     3.34648100     9.47060858     0.16889480    -0.54401889     1.05807671
Ti      0.99003875     0.34150269     6.83936993     0.16822606     0.54429734    -1.05704312
Ti      6.20686942     3.34648241     4.03397815    -0.16822606    -0.54429734     1.05704312
O       2.27786777     1.29860221     5.54858625     3.17333100    -0.16989008     0.41876498
O       4.91904045     2.38938279     5.32476183    -3.17333100     0.16989008    -0.41876498
O       1.32063342     1.29861705     0.11194720    -3.17249745    -0.17016390     0.41760542
O       5.87627485     2.38936794    10.76140054     3.17249745     0.17016390    -0.41760542
O       4.91902841     0.54539037     0.11191194    -3.17333100     0.16989008     0.41876498
O       2.27787976     3.14259462    10.76143586     3.17333100    -0.16989008    -0.41876498
O       5.87626286     0.54537553     5.54862151     3.17249745     0.17016390     0.41760542
O       1.32064525     3.14260951     5.32472656    -3.17249745    -0.17016390    -0.41760542
O       0.26149419     2.24324147     2.93716254    -0.40903258     0.13189738     0.67712675
O       6.93541397     1.44474358     7.93618553     0.40903258    -0.13189738    -0.67712675
O       3.85994516     1.44470915     2.49954605    -0.40924470    -0.13186267    -0.67765460
O       3.33696301     2.24327589     8.37380186     0.40924470     0.13186267     0.67765460
O       0.26148220     0.39924900     2.49951133    -0.40903258     0.13189738    -0.67712675
O       6.93542602     3.28873599     8.37383658     0.40903258    -0.13189738     0.67712675
O       3.33695102     0.39928343     7.93622019     0.40924470     0.13186267    -0.67765460
O       3.85995720     3.28870156     2.93712782    -0.40924470    -0.13186267     0.67765460
