# total energy = -19960.12891374 eV

CRYSTAL
PRIMVEC
        7.60600008     0.00000000     0.00000000
        0.00000000     7.60600008     0.00000000
       -1.89786986    -1.89786986     4.85670466
PRIMCOORD
24 1
Ti      3.84323101     6.57771502     1.25219599     1.08785472     0.42695575    -2.38617977
Ti      3.73876200     2.80132101     1.22308902     2.66771284    -0.74728524    -0.30290409
Ti     -0.00867099     6.81670502     1.24304397    -1.12165831    -1.99626668    -0.91231079
Ti      0.11558200     2.88559402     1.24035300    -2.79499638     2.41209804    -0.07225420
Ti      5.69504224     2.89308622     3.64012384    -1.70578180     1.74477465    -0.00018023
Ti      5.68643321    -0.78939180     3.66785881    -0.13470760    -1.25117562    -0.93288399
Ti      1.87236024     2.70003421     3.55664782     1.74614376     0.75861712     2.59460246
Ti      1.93612520    -1.04225979     3.53205483     0.11677672    -0.89702634     3.03812204
O       3.96456198     4.57491899     0.75072202    -1.62553944     1.36601862     0.11658440
O       3.92567598     0.77335498     0.72732301    -0.60305710     1.00661040     0.20223662
O      -0.06524602     4.82666798     0.81200497     1.04818927    -1.03074844     0.50261383
O      -0.15573300     1.07489002     0.81007898     0.55053561    -0.25485272    -0.17569023
O       5.40190423     4.78955424     4.14425883     1.17867177     1.20596456     0.02945405
O       5.52060224     1.08533820     4.03993281     1.17754332    -2.06249113     0.74334374
O       2.16793225     4.62458222     4.04231479    -1.21072573     0.34771921    -0.49530135
O       1.93630523     0.84617025     4.02020079    -0.82986371    -0.19671929     0.22330965
O       3.71381124     2.67627023     3.28027283    -0.22467285     0.36398941    -0.95848936
O       3.86551122    -0.84181575     3.11667583     0.02691895    -0.21098995     1.09345458
O      -0.08360276     3.04817923     3.20728780     1.33722405    -0.52747538    -0.48344676
O       0.00529024    -0.91786577     3.27822481    -0.74936038     0.02014820     0.03252678
O       5.75034798     6.66097498     1.58123999     0.30803113     0.05160849     1.34946328
O       5.53484801     2.92707300     1.72795899     1.68034072    -0.63765902    -0.19577209
O       1.93474098     6.66399499     1.71891598    -0.69868597    -0.17203438    -2.32591488
O       1.89922699     2.61177802     1.62503698    -1.22689360     0.28022001    -0.68438369
