# total energy = -19931.49034441 eV

CRYSTAL
PRIMVEC
        5.99482217     0.00000000     0.00000000
        2.73281608     5.76541309     0.00000000
        0.00000000     0.00000000    11.02589469
PRIMCOORD
24 1
Ti      3.79229892     3.41657842     4.09052826     0.68716614    -2.94662210     0.73922766
Ti      4.93533913     2.34883458     6.93536649    -0.68716614     2.94662210    -0.73922766
Ti      6.28349948     2.34883653     1.42237507    -1.88075109    -0.99247910     0.64252149
Ti      2.44413867     3.41657669     9.60351986     1.88075109     0.99247910    -0.64252149
Ti      2.42589102     0.53387197     1.42241926     0.68716614    -2.94662210    -0.73922766
Ti      6.30174706     5.23154121     9.60347567    -0.68716614     2.94662210     0.73922766
Ti      1.07773063     0.53386985     6.93532230     1.88075109     0.99247910     0.64252149
Ti      7.64990752     5.23154332     4.09057251    -1.88075109    -0.99247910    -0.64252149
O       2.85967000     2.03009993     5.62642967     1.68159645     2.10018711    -1.02754330
O       5.86796804     3.73531308     5.39946514    -1.68159645    -2.10018711     1.02754330
O       2.06232907     2.03012322     0.11351778     0.32866887    -1.08260041     1.51329557
O       6.66530906     3.73528989    10.91237673    -0.32866887     1.08260041    -1.51329557
O       4.50156012     0.85260651     0.11348196    -1.68159645    -2.10018711    -1.02754330
O       4.22607794     4.91280656    10.91241249     1.68159645     2.10018711     1.02754330
O       5.29890112     0.85258326     5.62646543    -0.32866887     1.08260041     1.51329557
O       3.42873688     4.91282982     5.39942932     0.32866887    -1.08260041    -1.51329557
O       1.88005936     3.50685110     2.97836924     0.65182117     2.57267892     2.41236698
O       6.84757862     2.25856192     8.04752558    -0.65182117    -2.57267892    -2.41236698
O       4.28576559     2.25850827     2.53461321     1.01069769     1.71938114     1.15921520
O       4.44187246     3.50690474     8.49128136    -1.01069769    -1.71938114    -1.15921520
O       0.51365143     0.62414447     2.53457799     0.65182117     2.57267892    -2.41236698
O       8.21398656     5.14126855     8.49131658    -0.65182117    -2.57267892     2.41236698
O       3.07546452     0.62419811     8.04756068    -1.01069769    -1.71938114     1.15921520
O       5.65217352     5.14121490     2.97833402     1.01069769     1.71938114    -1.15921520
