# total energy = -19075.60037983 eV

CRYSTAL
PRIMVEC
        7.60600008     0.00000000     0.00000000
        0.00000000     7.60600008     0.00000000
       -1.89786986    -1.89786986     4.85670466
PRIMCOORD
22 1
Ti      3.75276302     6.68160802     1.18732198     0.75273881    -0.00682525    -0.39425362
Ti      3.85896101     2.85959999     1.21502298     0.87841026     0.08957418     0.67508401
Ti      0.05290899     6.60611099     1.08343703    -0.89704280    -0.76576839     0.30250428
Ti      0.13632902     2.69113699     1.12617698    -1.35667625     1.40453813    -0.13502359
Ti      5.77217024     2.79961722     3.56992482    -0.57346395    -0.19208076     0.26295993
Ti      5.98627224    -1.02824479     3.61719083    -0.80203382     0.64278914     0.26132239
Ti      1.94072020     2.93710122     3.70649081     0.41877270    -0.67149912    -0.39452487
Ti      1.30885024    -0.79557079     3.84597283     0.72636365    -0.55699808    -0.45660675
O       3.66216100     4.70427801     0.79076999    -0.14723711     2.04311426    -0.20543379
O       3.89922902     0.99519100     0.75053299    -0.26202636    -0.65871070     2.52052356
O       0.17788299     4.62818201     0.70896400     0.03734889     0.82633486    -0.36790854
O       7.21597698     0.89937500     0.69788002     1.15967748     0.38485212     0.45595215
O       5.59972022     4.73071920     4.05963783     0.69451924     0.00750402    -0.87679124
O       5.54929021     0.87395523     3.84328080     1.05406835    -0.41147565     0.41000292
O       2.02023422     4.90624322     4.17113680    -0.77119754    -1.01795283    -0.44999387
O       2.10955225     0.90699520     4.07252981    -1.05370120     0.93680518    -0.16511502
O       3.80390324     2.91360221     3.26022082    -0.38193906    -0.05484859    -0.35327819
O       0.12184724     2.96223921     3.13424282    -0.70393771    -0.56134582     0.32984489
O       5.84093699     6.41413602     1.74751399    -1.22241423     0.34415051    -0.11377573
O       5.69972498     3.09420199     1.65725498     0.43390956    -0.78636397    -0.09296855
O       1.72841599     6.77812799     2.04460701     1.19885031    -0.34630561    -1.47325654
O       1.90637099     2.79871402     1.52662900     0.81701127    -0.64948815     0.26073644
