# total energy = -4978.77261022 eV

CRYSTAL
PRIMVEC
        5.01540170     0.00000000     0.00000000
       -0.00000759     3.00924102     0.00000000
       -2.50772910    -1.50467541     5.46198878
PRIMCOORD
6 1
Ti     -0.00021498     2.25703773     1.36549683    -0.00845199    -0.00837949    13.63901930
Ti      2.50787982    -0.75247223     4.09649128     0.00845199     0.00837949   -13.63901930
O       0.00005312     0.75230059     0.88971323     0.00529108     0.00935933    -7.30267899
O       2.50761162     0.75226486     4.57227494    -0.00529108    -0.00935933     7.30267899
O      -0.00002066    -0.75231061     3.62070762    -0.00232685     0.00003702    -2.16312723
O       2.50768534     2.25687600     1.84128049     0.00232685    -0.00003702     2.16312723
