# total energy = -19071.55543423 eV

CRYSTAL
PRIMVEC
        5.17600016     0.00000000     0.00000000
        0.00000000     5.50899976     0.00000000
        0.00000000     0.00000000     9.26300011
PRIMCOORD
22 1
Ti      2.02554700     3.52241502     3.24325402    -1.29797949    -0.96964975     1.22537434
Ti      3.55811501     2.48217299     5.96145001     0.71201406    -0.48779193     0.70802217
Ti      4.49996601     2.24871502     1.50937402    -0.34026455    -0.37551593    -0.85969340
Ti      0.92678701     2.31181501     7.90227902    -1.01736147     2.29907513    -0.96949086
Ti      1.90309702     0.57757400     1.45433900    -0.88489099     1.03021262    -2.22498054
Ti      2.99121399     5.50439698     7.90424401     3.07221796    -1.77723587     2.39236481
Ti      0.41189099     5.39838103     6.01102101     0.23695064    -0.18225143     2.07986151
Ti      4.54397599     4.95393701     3.38526101    -0.36670244    -0.43916592     2.56265521
O       3.56651898     3.21518403     4.27654801     1.03764003     0.90617536     1.57557080
O       0.86346799     2.14001502     0.47644601     0.46332273     0.43561420    -2.53280263
O       4.70760400     3.78597699     7.07723501    -0.19657942     0.01316482    -0.83039490
O       3.44988202     1.12699699     0.15652798     0.23243938     0.62064551     1.08377232
O       1.71924100     5.08827501     0.02262100    -0.79004579    -0.23950580     0.88872451
O       4.23848900     0.70178698     4.71704198    -0.05872196     0.06556547     2.29446925
O       1.10616000     4.77896598     4.44874499     0.30691810    -0.59250786     0.55201271
O       0.33943302     3.73286601     2.34980401    -0.53822876    -1.49677340    -1.13966221
O       4.61674199     1.14663698     7.28464201     0.93512985    -0.00548879    -0.51349860
O       2.74475699     2.15724202     2.17664399    -0.76210868     0.37431959     0.76778183
O       2.01304799     4.13113899     7.31503298    -0.56803223    -3.49035097    -2.51185276
O       5.12313001     0.75662499     2.26129398     1.75029018     0.46050043    -0.22319112
O       2.13974398     1.12425998     6.89360500    -2.44716507     2.79267621    -2.89215531
O       2.85674301     4.95806401     2.57780802     0.52115843     1.05828857    -1.43288738
