# total energy = -19074.82391298 eV

CRYSTAL
PRIMVEC
        5.17600016     0.00000000     0.00000000
        0.00000000     5.50899976     0.00000000
        0.00000000     0.00000000     9.26300011
PRIMCOORD
22 1
Ti      1.89753400     3.43003899     3.28533398    -0.46936277     0.10628276    -0.01077807
Ti      3.51446202     2.25872298     5.89554898    -0.46959880    -0.06166845    -0.82313461
Ti      4.35193301     2.26575601     1.18563200     1.18847899    -0.59824399    -0.53347608
Ti      0.76009798     3.25192798     8.08442299     0.90919512    -0.47722469     1.30029605
Ti      1.79497399     0.48940799     1.34962101    -0.64488639     0.43933124    -1.92269711
Ti      3.26636801     4.95054599     8.12080901    -0.73948425     0.68177325     0.24725563
Ti      0.65134602     0.38177101     6.07564001     0.94798100    -0.49226745    -1.85361129
Ti      4.42462699     4.98750500     3.35212197     1.17081499     0.71389894     1.48629230
O       3.53480402     3.42336601     4.26671701    -0.52427718    -0.30535204     2.19833516
O       0.88674099     1.81609801     0.25790199    -0.87988608     1.21665187    -2.51859600
O       4.30785900     3.62601798     9.01503998    -0.22264142    -0.42352255     0.54739424
O       3.41300699     0.76612700     0.25665800     0.85011552     0.15059240    -1.34025178
O       1.67129400     4.55149501     9.17609899    -0.48096668     0.54191059     0.24936985
O       4.15477797     0.87501501     4.60762903    -0.02949622    -0.47095094     1.11222030
O       0.88457899     4.78240500     4.41311998     0.94973526    -0.55182425     1.17009920
O       0.21064498     3.52612498     2.33677202    -0.19426517    -0.40549731    -0.11451775
O       0.12150100     2.14416499     6.48249698    -0.00454777     0.16992144     0.75780028
O       2.65767600     2.03247203     2.09043000    -0.02442369     0.84764443     1.65837064
O       2.40403600     3.48681002     7.15402202     0.53758625    -0.78385894    -1.86046456
O       0.12395702     0.78979498     2.17898300    -0.47262164    -0.76757177     0.97773664
O       2.52121997     0.72425903     6.77610199    -0.75744727     0.07227888    -0.37585711
O       2.83699703     4.72834801     2.35112600    -0.64000104     0.39769684    -0.35178541
