# total energy = -19070.69498554 eV

CRYSTAL
PRIMVEC
        7.60600008     0.00000000     0.00000000
        0.00000000     7.60600008     0.00000000
       -1.89786986    -1.89786986     4.85670466
PRIMCOORD
22 1
Ti      3.83142199     6.50726999     1.36094800     1.52773130     2.18165640    -0.07380766
Ti      3.66912799     2.76657602     0.93150198     0.09518485    -0.97216121    -1.07989021
Ti     -0.25657302     6.51543901     1.09946199     0.89091354    -0.95534978     0.36827724
Ti     -0.10964299     2.98158899     1.18325801     0.15712197     2.24993027     1.65869177
Ti      5.56465524     2.74181725     3.40112881     1.54053282     5.71801677    -0.83333135
Ti     -1.20869778    -0.45887378     4.06701779     1.58802934     0.06593854    -4.02352880
Ti      1.90715825     2.93667825     3.76293979    -2.03360657    -0.69542530    -1.99468828
Ti      1.73141721    -1.13592776     3.78727480     0.42153612     2.33813766     0.43455850
O       3.93863500     4.75870802     0.64623300    -0.32130368    -1.25154252     3.01986797
O       4.18042402     0.88631400     0.82919397    -0.81645000    -0.39869134     1.34665409
O       0.49067098     4.68518598     0.83023000    -0.28940425     0.49384045     1.49952320
O       7.35303701     0.99345700     0.52285797    -2.04469986    -3.06333994     3.35254056
O       5.01284322     4.23457923     4.26914979    -1.14894544     1.97108838    -0.19887645
O       5.41739124     1.20826020     4.03474581    -1.55549511    -4.70846399    -0.37006827
O       2.05832323     4.76695821     4.36058480    -0.09825552    -0.91740671    -2.05853805
O       2.43584622     0.76899922     4.10398283    -0.86319267     0.68126957    -2.27251691
O       3.38959624     2.94340520     2.69390279     0.03152431     0.04480997     2.37634195
O      -0.03731075     3.24336922     3.27933179     1.30614146    -1.66139169    -1.16494671
O       5.84080702     6.43893199     2.17606602    -0.55256807     0.63842341     0.09885047
O       5.66945699     3.24809001     1.60347401     0.03708098    -1.34456610    -0.64099811
O       2.11536902     6.68230500     1.98281001    -0.39476218    -0.46810576    -0.33289139
O       1.69187899     2.43860800     0.40862998     2.52288614     0.05333216     0.88877619
