# total energy = -19515.42617664 eV

CRYSTAL
PRIMVEC
        5.17600016     0.00000000     0.00000000
        0.00000000     5.50899976     0.00000000
        0.00000000     0.00000000     9.26300011
PRIMCOORD
23 1
Ti      1.92360402     3.10340401     3.30448099    -1.14066211     1.20566194     2.95096161
Ti      3.42018999     2.22268902     5.87893001    -0.69742536     0.87191257    -2.56907114
Ti      4.25821599     2.17153298     1.51975499     1.18939122    -0.35016973    -2.57514281
Ti      0.86944902     3.44982598     7.78090301    -0.68110014     0.25430971     3.37211720
Ti      1.93499001     5.47112898     1.52610999    -0.56953530     2.52027904    -2.92397890
Ti      3.32154500     5.31428598     7.87416399     0.12468209    -0.85734289     3.37221131
Ti      0.70980799     0.73770097     5.97712800    -0.64922256    -1.67853118    -4.15780677
Ti      4.42897699     4.85956502     3.33322802     1.62233019     0.75122237     2.22266140
O       1.74935902     1.98237302     4.81834598    -0.82572500    -0.37410131     0.31553747
O       3.55241202     3.61974300     4.56926500    -0.45258220     0.07586968    -0.74741585
O       5.05457398     3.15878400     0.11211102    -0.45573669    -1.21374420    -0.39848129
O       3.84571301     0.65725698     0.15406599    -1.06856373     0.36683048    -0.61846855
O       1.76980400     4.80927599     9.04672499     0.13633280     0.28262759    -0.45415855
O       4.23982602     0.81574800     4.73482302    -0.52600471     1.01602476     0.91378994
O       0.86223501     4.84370600     4.23597599     1.85400981    -0.46518293     0.74866464
O       0.10965500     3.29525601     2.60775501     1.38179414    -1.02944001     0.12010090
O       5.03039402     2.05981700     6.96892502    -0.79027899     0.15324912    -0.26523484
O       2.39329100     1.79372403     2.15766002     1.79550459    -1.78242101    -1.12041878
O       2.57627399     3.57544499     7.08805499     0.84503502     0.01448277    -0.13123738
O       0.29881697     0.60831301     2.00577302    -2.42579457     0.12622321     0.57509351
O       5.07662999     4.80660602     7.13120701    -0.54630640     1.08207231    -1.10458412
O       2.26998101     0.98481601     6.98258901     0.83960228     0.17394136     0.27071695
O       3.03735301     4.12669401     1.90486199     1.04025561    -1.14377366     2.20414405
