# total energy = -19073.70750314 eV

CRYSTAL
PRIMVEC
        5.17600016     0.00000000     0.00000000
        0.00000000     5.50899976     0.00000000
        0.00000000     0.00000000     9.26300011
PRIMCOORD
22 1
Ti      1.52343299     3.25153099     3.44432201     1.87004861     0.35909711    -1.50098924
Ti      3.73665201     2.08709799     5.86416803    -0.51095912     0.61210481    -1.40267742
Ti      4.43691697     2.27479499     1.26617299    -0.74950642    -0.82407204    -1.20150883
Ti      0.88528502     3.17012702     7.95495501     0.77657732    -0.29079316     0.76150627
Ti      1.77295699     0.58549198     1.34195302     0.74998027     0.51760902    -0.53764487
Ti      3.22911102     5.12302698     8.18333601     0.62378380    -0.24211959     1.19415136
Ti      1.50425100     0.20696001     5.82328601    -0.97655162     2.57310109    -2.58585171
Ti      4.15729897     5.03448001     3.42105800    -0.15037437    -0.50891124    -0.25357566
O       3.20468901     3.16429501     4.34117098     0.71207448     0.76705343     1.93407450
O       0.96441501     1.94826500     0.16865498    -0.88728494    -0.36723851    -0.72088951
O       4.50798199     3.71994398     8.70154199    -1.61029459     0.21202147    -0.08944923
O       3.50259400     0.83672798     0.31698601     0.12975077    -0.39869340    -0.52753066
O       1.76457001     4.60943601     9.13097202    -0.60740484     0.04455698     0.44957992
O       3.30024900     0.63040298     4.71071402    -0.37912421    -0.59950358     0.54402686
O       0.67258100     4.60289802     4.48665900    -0.86988834     0.51635638     0.93537976
O       5.12562598     3.59471498     2.30806500    -0.23914148     0.88131484     0.43971177
O       0.26387900     1.63193401     6.41796101     0.48762095     0.51182970     0.25952236
O       2.63995401     2.15859899     2.15435499    -0.32159139    -0.37622247    -0.09923125
O       2.06211299     4.39092703     6.72266498     0.82828505    -4.73195206     1.66158426
O       0.02434401     0.91180299     2.35110600     0.48494237    -0.76488779     0.90742440
O       2.71312198     1.14783001     7.11722700     0.33948113     1.70684984     0.24379106
O       2.41003602     4.76892701     2.58424398     0.29957708     0.40249941    -0.41140443
