# total energy = -4986.26185569 eV

CRYSTAL
PRIMVEC
        3.87539919     0.00000000     0.00000000
        0.00000000     3.64330145     0.00000000
        0.00000000    -0.00007175     5.18158423
PRIMCOORD
6 1
Ti      1.93769943     1.82161496     2.59079222     0.00000000     0.00000000     0.00000000
Ti      0.00000000     0.00000000     0.00000000     0.00000000     0.00000000     0.00000000
O       1.93769943     0.71001185     1.00981451    -0.00000000     0.03985648     0.88450918
O       1.93769943     2.93321807     4.17177000    -0.00000000    -0.03985648    -0.88450918
O       0.00000000     1.11157445     3.60060774     0.00000000    -0.03955721     0.88441662
O       0.00000000     2.53165547     1.58097671     0.00000000     0.03955721    -0.88441662
