# total energy = -4987.90615083 eV

CRYSTAL
PRIMVEC
        4.16574837     0.00000000     0.00000000
        0.20814841     4.16054488     0.00000000
       -2.18698537    -2.08030762     5.31808465
PRIMCOORD
6 1
Ti      0.15594302     3.12056664     1.32952102    -0.00097753     0.00097753     0.00000000
Ti      2.03096785    -1.04032989     3.98856334     0.00097753    -0.00097753     0.00000000
O       0.05208092     1.04012941     0.86627251    -0.00047257    -0.00173472    -0.99696079
O       2.13482977     1.04010723     4.45181191     0.00047257     0.00173472     0.99696079
O      -0.05206038    -1.04010987     3.52531483    -0.00173472    -0.00047257    -0.99696079
O       2.23897107     3.12034645     1.79276965     0.00173472     0.00047257     0.99696079
