# total energy = -19072.39267569 eV

CRYSTAL
PRIMVEC
        5.17600016     0.00000000     0.00000000
        0.00000000     5.50899976     0.00000000
        0.00000000     0.00000000     9.26300011
PRIMCOORD
22 1
Ti      1.83615600     3.39428401     3.15058598    -0.39631924     1.09687107     1.19048754
Ti      3.51561398     2.18514199     6.06605597     0.66277408     2.95148483    -0.14075767
Ti      4.30179701     2.22682301     1.19561101     0.66316591     0.06452391    -0.34497841
Ti      0.88434398     2.91872200     7.97062602     0.28093889     1.95923507     0.22775432
Ti      1.74872200     0.45400498     1.31621098    -0.49887236     0.32557994    -1.39207393
Ti      3.37313603     5.08719300     8.05747803    -0.69191574    -1.18231606     1.79283064
Ti      1.42300298     0.25825802     5.98011298    -1.38246751    -0.88288347    -0.62962355
Ti      4.36652698     4.98822701     3.54878102     0.27031457    -1.09048007     0.10672113
O       3.33543998     3.60826699     4.47398198    -0.25697260    -0.66469829     0.60102130
O       0.97156800     2.09936098     0.38444299    -1.03061346    -0.62495853    -0.80623886
O       4.27018100     3.58781302     8.86395802     0.37542877    -0.53478888    -0.60036515
O       3.33734502     0.87303599     0.16309899     1.03011492     0.23379127     0.86901082
O       1.72549498     4.61990297     8.74983999    -1.48540887     0.07100104     3.37223419
O       2.95766002     0.95243401     4.99495698     0.24431146    -1.19306456    -1.89082802
O       1.01832600     4.91399201     4.30856101    -1.40056140    -0.07922215     0.22234857
O       5.00298201     3.44267500     2.57816601     1.52477221    -0.35277245    -0.45555260
O       0.19482401     1.93854899     6.24821101    -0.11555236    -0.12620445     0.63908778
O       2.50139699     1.86665402     2.32784601     0.81525906     0.30655763     0.43606697
O       2.13477998     4.22659098     6.70686602     0.85164250    -1.80100161    -1.82597963
O       5.07682700     0.71728902     2.09700302     0.65474452    -0.64767193     0.74995739
O       2.39780700     1.26022398     7.36929899     0.18095791     1.85552162    -1.31241675
O       2.79898998     4.67068499     2.28735199    -0.29574125     0.31549607    -0.80870635
