# total energy = -4986.05399546 eV

CRYSTAL
PRIMVEC
        3.25248472     0.00000000     0.00000000
        1.96006005     4.70414380     0.00000000
       -0.00001250    -0.00006771     5.20540814
PRIMCOORD
6 1
Ti      2.60626605     2.35203789     2.60270401     0.00000000     0.00000000     0.00000000
Ti      0.00000000     0.00000000     0.00000000     0.00000000     0.00000000     0.00000000
O       2.00822668     0.91675503     1.01445735     0.07822841     0.32906765    -0.14876023
O       3.20430542     3.78732075     4.19095061    -0.07822841    -0.32906765     0.14876023
O       0.59803402     1.43525553     3.61716251    -0.07853823    -0.32780009    -0.14883942
O       1.36201352     3.26882045     1.58824552     0.07853823     0.32780009     0.14883942
