# total energy = -19517.77816931 eV

CRYSTAL
PRIMVEC
        5.93400000     0.00000000     0.00000000
        0.00000000     9.29699974     0.00000000
        0.00000000     0.00000000     4.64899994
PRIMCOORD
23 1
Ti      4.48924398     7.10592700     2.16337100     1.93324558    -0.26910538     0.46971218
Ti      4.54422100     2.24100501     2.33802601    -0.98461023    -0.51147771    -0.04707255
Ti      1.52984100     7.10446002     2.31453498    -2.07155375    -0.90454477    -0.71806079
Ti      1.45357497     2.27873201     2.30167598     0.98301769    -0.54991932     0.58552063
Ti      2.91903500     4.48179401     0.24304598    -0.42184902    -0.30294420    -0.14199642
Ti      2.94408599     9.22827798     4.44474202     0.57039276     0.10619611     1.13521446
Ti      5.87448301     4.70659898     0.08151198     0.82593326     0.41615300    -1.63365127
Ti      5.91327001     0.06528301     4.64182102    -0.18113737    -0.50699833     1.29676516
O       4.41608401     5.53118102     0.90967702    -0.71358269     0.91944329     0.93555434
O       4.40032500     0.88488401     0.94423700     0.42034287    -0.06392433     0.16699090
O       1.52827501     5.65045302     1.04067897     0.38444769    -1.44878812    -0.84485916
O       1.51479401     0.89110501     1.01962502    -0.24031236    -0.58035888    -0.76159832
O       4.52715598     8.40578900     3.56547201    -0.56706421     0.27470602     0.75884261
O       4.40955301     3.77017698     3.90964201     0.09453384    -0.48610606    -1.22227461
O       1.41338798     8.43298300     3.58736201     0.17218401     0.32906945     1.00203718
O       1.43450501     3.85696802     3.77264199     0.73996274    -0.12948697     0.16175099
O       2.93096800     1.34809100     3.32624600     0.38664109     1.09250328    -0.74492857
O       5.89496101     6.13751099     3.19698398    -0.02547707    -0.49729576     0.51761982
O       5.92708101     1.39933499     3.35678101     0.25635656     1.16282940    -0.95556936
O       2.98124101     7.90316602     1.34504300    -0.13573836    -0.54194632     0.02173946
O       3.02858999     3.20673502     1.56765802    -0.49817996     0.30843505    -0.19453745
O       0.03526898     7.75870799     1.24410402    -0.08917335     1.03479047    -0.10976841
O       0.05662202     3.06215602     1.35094300    -0.83837972     1.14877035     0.32256944
