# total energy = -19519.29877205 eV

CRYSTAL
PRIMVEC
        7.60600008     0.00000000     0.00000000
        0.00000000     7.60600008     0.00000000
       -1.89786986    -1.89786986     4.85670466
PRIMCOORD
23 1
Ti      3.80220702     6.56143398     1.22294402    -0.02857988     0.52284302     0.19700571
Ti      3.75842601     2.83725003     1.20936200     0.48108623    -0.20625063     0.66169987
Ti      0.02656401     6.71424699     1.25576402    -0.03646494    -0.48677069    -0.71766561
Ti     -0.02962398     2.91110698     1.07358999    -0.36085806    -0.12392593     1.14719452
Ti      5.65509925     2.89318120     3.65307783    -0.64725515     0.69469871    -0.04733248
Ti      5.74237524    -0.95938576     3.61566981    -0.70235751    -0.77078770     0.25281692
Ti      1.99987423     2.85716720     3.63768279     0.45571972    -0.38949553     0.38141867
Ti      1.89823823    -1.00606978     3.68928281     0.51990888     0.18758930    -0.29194656
O       3.71488298     4.70716600     0.75023501    -0.20119764     0.47224806     1.07473463
O       3.76574401     0.91669798     0.76185400     0.05949278     0.26310983     0.38663518
O      -0.02815001     4.80252300     0.72424902     0.51600568     0.16972424     0.88819563
O      -0.05264599     0.94841300     0.81586897     0.23408746    -0.12403932    -0.60193095
O       5.73072323     4.74093222     3.93075883     0.58472744     0.70440797     0.65285964
O       5.72052625     0.99435422     4.10396881     0.51235626    -0.86458929    -1.89432498
O       1.88795822     4.69153823     3.98644082    -0.44661081     0.62346807     0.71467541
O       1.85420925     0.97875725     4.10554581    -0.33209692    -0.88353730    -0.34075254
O       3.81295424     2.95647022     3.39395883    -0.16478978    -0.66010630    -1.48894670
O       3.82186722    -1.02383076     3.28847481    -0.02594167     0.25645169    -0.80514640
O       0.02492224    -1.14973680     3.21496579    -0.41340783     0.95756479    -0.23055528
O       5.69941298     6.63201300     1.52922102    -0.16806485     0.13741523     0.96838451
O       5.76114801     2.87621202     1.68530402    -0.16396805    -0.08129317    -0.46612961
O       1.90701701     6.72815699     1.62014801     0.17357241    -0.22796823     0.25898526
O       1.77592102     2.87704902     1.75109001     0.15463649    -0.17075705    -0.69987459
