# total energy = -79406.17795510 eV

CRYSTAL
PRIMVEC
       10.35150501     0.00002646     0.00000000
        0.00002858    11.01713167     0.00000000
        0.00000000     0.00000000     9.26345890
PRIMCOORD
95 1
Ti      7.04300286     8.79998296     3.45171335    -0.05718830     0.05876233     0.08659196
Ti      7.07452786     3.25009060     3.42390583     0.05544509     0.01776376     0.03040716
Ti      1.88018968     8.77593100     3.44025742    -0.06350859     0.08720645     0.03887921
Ti      1.81678301     3.20454188     3.44993527    -0.01762723    -0.05463776     0.06415496
Ti      8.48253452     7.74997197     5.82029625     0.01315891     0.00194993    -0.01668929
Ti      8.47260477     2.24695533     5.82240517     0.09804083    -0.06196027     0.04916465
Ti      3.28656549     7.74980718     5.82434039    -0.04571629     0.00062375     0.01714772
Ti      3.27360762     2.29265263     5.77200244     0.01484581    -0.20444289     0.10457246
Ti      9.58111029     7.76585024     1.22579806     0.00991752     0.08936567    -0.13702725
Ti      9.64363182     2.23505065     1.19014981     0.02434861    -0.11981628    -0.04302588
Ti      4.46745748     7.73554518     1.20664587     0.04626059    -0.01496974    -0.02683590
Ti      4.45337430     2.27807907     1.20800048     0.04240213    -0.07686804     0.02344153
Ti      5.88921448     8.78484426     8.07836730     0.02252724     0.00567494     0.01839316
Ti      5.88010974     3.23107928     8.04586912     0.07693721     0.11038058     0.04449758
Ti      0.68482925     8.86241051     7.99117977     0.00962441    -0.05554536    -0.02165590
Ti      0.70737574     3.26536519     8.07407951     0.01894312     0.03304537    -0.01391790
Ti      7.02533098     6.00550329     1.18675520     0.03649502     0.00660594    -0.02842716
Ti      7.03715137     0.52142464     1.19518317    -0.00380446     0.05129276     0.08531746
Ti      1.77782792     6.20263809     1.00131519    -0.05073020     0.08571547     0.02925916
Ti      1.87758158     0.50385073     1.17900336    -0.00142568     0.00214379     0.02965589
Ti      8.45872229    10.50746598     8.07970032    -0.13596924    -0.06812783     0.07859171
Ti      8.47934860     4.98655789     8.08833717     0.07229251    -0.01757864     0.00069883
Ti      3.31240734    10.52429209     8.07245855     0.02206187    -0.09823726     0.03756100
Ti      3.29959339     4.96963020     8.05994355     0.04092581    -0.02799907    -0.00155886
Ti      5.90020323     6.07512541     5.88701440    -0.00831932     0.02211278     0.08999173
Ti      5.87681252     0.53018554     5.83730162     0.06529910     0.01255882    -0.02289980
Ti      0.71622624     6.01404724     5.81511374     0.03120395     0.00951514     0.05688465
Ti      0.73147269     0.51700048     5.83409901     0.04201338     0.13317677    -0.05343680
Ti      9.64052610    10.51846489     3.43912743     0.01862739    -0.02484998     0.03596383
Ti      9.64515030     5.00012927     3.41771908    -0.02337442     0.00866822    -0.01538369
Ti      4.46758731    10.51379571     3.43914397    -0.08826138    -0.02369890     0.02613296
Ti      4.59261931     4.98273054     3.54303667     0.15591947    -0.05460537     0.12883854
O       6.81495013     7.44218098     4.72173533     0.02863619     0.01664250     0.00904823
O       6.81668803     1.93683130     4.72736200     0.04129939    -0.00463621    -0.00187485
O       1.63933820     7.45309840     4.74253687    -0.01251305     0.02268382     0.01437993
O       1.64298900     1.90339888     4.76168933    -0.06107838     0.02551127    -0.11094314
O       8.71312602     9.07565784     4.53743419     0.03032412     0.02380740     0.00928529
O       8.72850804     3.56857346     4.53962238     0.06541197     0.01443135    -0.01967255
O       3.53515588     9.07909594     4.53899970    -0.01564157     0.00008099     0.01069605
O       3.56042045     3.61228788     4.48069998    -0.01366259     0.04153233    -0.10438991
O       6.12349986     7.44666061     0.09993933     0.01738452    -0.04969250     0.03727073
O       6.12421686     1.93369724     0.10206426    -0.00497226    -0.02047602    -0.04961665
O       0.92847222     7.47088139     0.05423145     0.03860950    -0.15353425    -0.04787010
O       0.94248114     1.92655113     0.09058686    -0.03429570    -0.01334429    -0.03702518
O       9.39726749     9.07357690     9.17151906    -0.12298131     0.13885556    -0.00081453
O       9.40237798     3.57011748     9.16336597     0.01741255    -0.00910788    -0.00743795
O       4.22040179     9.05362363     9.17532148    -0.02248533    -0.01925191     0.02017443
O       4.23358102     3.57410249     9.16448499     0.00772437     0.00562763    -0.00020029
O       8.72310361     6.32174186     0.09680179    -0.01703279    -0.01319105     0.02784583
O       8.71100798     0.81489843     0.09321850    -0.02506081     0.00270712    -0.00930405
O       3.53939910     6.28764255     0.12330135    -0.06931542     0.09412632    -0.06413131
O       3.53194344     0.82305801     0.11381519     0.01090148    -0.02063311    -0.00897547
O       6.81571827    10.19657044     9.16646690    -0.03049047    -0.01783266     0.01416010
O       6.82127045     4.69201882     9.16531915    -0.01128200    -0.06012681    -0.02064339
O       1.63742868    10.19317405     9.17998971     0.03548792     0.04317707     0.02070099
O       1.66464786     4.64122227     9.23161491     0.01094159     0.18381852    -0.06487436
O       9.41121210     6.31582176     4.73826156     0.02103240    -0.04860261    -0.03752475
O       9.40115241     0.81394656     4.72710130    -0.02309109    -0.00568831     0.00988024
O       4.20253233     6.33219190     4.71854336     0.04951252    -0.02677625    -0.00533478
O       4.22221925     0.83081107     4.72252963    -0.00326684    -0.01520088    -0.02893829
O       6.11802525    10.20266048     4.53703982    -0.02271005     0.00171955     0.00910762
O       6.12762981     4.67776391     4.56751354     0.04170948     0.08291862    -0.00995660
O       0.94652826    10.19471181     4.53774129     0.00380446    -0.04124925    -0.00808561
O       1.01721672     4.71888120     4.47933555    -0.00959125     0.04546329    -0.04236794
O       5.36528454     8.85129257     2.50225533    -0.05563278    -0.02520942    -0.00993989
O       5.40472465     3.34191683     2.48606784     0.02075704     0.02836751     0.04109396
O       0.19285600     8.85254395     2.49579463     0.03917026     0.00176043     0.00433257
O       0.17829083     3.36962311     2.47611984    -0.06493581    -0.00268578     0.04068232
O      10.16674379     7.66389762     6.76628447    -0.04314570    -0.03488628    -0.11310776
O      10.16649538     2.14254605     6.76161293     0.02102649    -0.01090508     0.04099471
O       4.99491371     7.65028881     6.75501097     0.01057572     0.03630630     0.06629926
O       4.99739178     2.15172160     6.75957962    -0.06621930    -0.00029259    -0.03119623
O       7.94678277     7.66646163     2.13461791    -0.08907976    -0.01784038     0.02885499
O       7.95841583     2.14719750     2.12880337     0.01719169    -0.07036778    -0.00874561
O       2.77646954     7.55613661     2.18207050    -0.04798632    -0.07134917    -0.12334743
O       2.75825312     2.19662831     2.12615999     0.06243309     0.05660749    -0.01270768
O       7.57343191     8.85416145     7.13256344    -0.03857042    -0.02591442     0.00338306
O       7.57808049     3.35300389     7.13298823    -0.00919375    -0.03499838    -0.01598507
O       2.39283773     8.85425471     7.13882477     0.02950779     0.03105791    -0.03783328
O       2.39912123     3.36878661     7.12384416    -0.02774478    -0.03481738    -0.04922302
O       5.34072280     6.07686957     2.10266563    -0.02158468    -0.06317563     0.12277845
O       5.36215939     0.59687861     2.13481485    -0.00519620    -0.02052770     0.01673686
O       0.21802160     6.10508585     2.14615455     0.01307869     0.14490666    -0.19935236
O       0.18794727     0.60524030     2.13613238     0.00877724     0.01720686     0.03220642
O      10.16832249    10.40010539     7.14403800    -0.11513687     0.12308930    -0.09061754
O      10.17703315     4.90909984     7.13473177    -0.00061706    -0.04883864    -0.01815714
O       4.99695786    10.40818907     7.13649909    -0.02802812     0.00947298     0.03022564
O       4.98866117     4.91600592     7.13228176    -0.02614736    -0.06834638     0.05183346
O       7.57195891     6.10361730     6.75947721     0.05572560     0.00288761     0.07826338
O       7.57282404     0.59284198     6.76397519    -0.03656933    -0.00810103     0.01735187
O       2.40005317     6.10787215     6.77787422    -0.00296705    -0.01179263     0.01177926
O       2.39893039     0.55585903     6.79293873    -0.02272548     0.05176610    -0.05544483
O       7.94889199    10.41616724     2.50149910     0.00651698     0.01307972    -0.01057829
O       7.94793365     4.91400197     2.50943344     0.05672370     0.02353280    -0.00627632
O       2.77716448    10.40466670     2.49827671     0.01790903    -0.04697793    -0.00215870
