# total energy = -19958.41023489 eV

CRYSTAL
PRIMVEC
        7.60600008     0.00000000     0.00000000
        0.00000000     7.60600008     0.00000000
       -1.89786986    -1.89786986     4.85670466
PRIMCOORD
24 1
Ti      3.81406598     6.63458898     1.24879401     0.27964228     1.67453826     1.93891872
Ti      3.84768800     3.02072102     1.20628399    -2.96917788    -1.42589166    -1.89207166
Ti     -0.00177100     6.50867702     1.21335999    -0.68509769     2.52314325     0.99291387
Ti      0.03193902     2.96931499     1.05862099     1.80891650    -2.08371559     0.47818037
Ti      5.65117424     2.87456824     3.57262479     0.06435988    -0.51796229    -1.33195792
Ti      5.87033522    -1.11801775     3.81373684    -3.13565610     1.74996314    -0.00431637
Ti      1.78102324     2.93881523     3.50470082     0.11056545    -1.61601196     0.28642100
Ti      1.85263622    -0.99868680     3.74502079     1.73149927     1.18697155     1.12740447
O       3.43113698     4.94553198     0.57369201     0.23773740    -2.53491222     2.05359331
O       3.76831602     1.07281898     0.94483201     0.54336712    -0.90395598    -1.20509347
O       0.48480500     4.78500199     0.49788298    -0.62304872    -1.15116970     2.23742854
O       0.06195602     0.79153000     0.94155698    -0.66029373     0.01405957    -0.72458959
O       5.47388425     4.73835523     4.16523780     0.21612341    -2.11253690    -0.37185133
O       5.72386520     0.92952725     3.99161183    -0.12740361     0.88911866     0.34477683
O       2.02334620     4.78735921     4.17886279     0.38460838     1.07337272    -1.37138657
O       1.76661925     1.10379622     4.01297382     0.27749772    -0.62092447     0.54237570
O       3.68591920     2.95850623     3.16384579     1.27273613     0.28769061    -0.21166358
O       4.06410324    -1.00499777     3.33796781    -2.59710106     0.38786314    -0.66890127
O      -0.05484377     3.16773921     3.10575980    -1.16970839     0.24607600    -1.29161781
O       0.03677120    -1.27597679     3.48912581     0.50172089     0.16189471    -1.49043152
O       5.67449598     6.52468601     1.64112402     2.64035603    -0.76425376    -0.15473624
O       5.56618498     2.89533898     1.46145802     3.13522133     0.64210934     0.69785551
O       1.91812201     6.67070798     1.88462101    -0.30143805    -0.07392027    -0.88890474
O       1.78655701     2.37250201     1.46863001    -0.93542681     2.96845386     0.90765375
