# total energy = -4986.36241486 eV

CRYSTAL
PRIMVEC
        4.72350996     0.00000000     0.00000000
       -0.00000810     3.49129017     0.00000000
       -2.36178389    -1.74569075     5.36261519
PRIMCOORD
6 1
Ti     -0.00020399     2.61859619     1.34065348    -0.00312106    -0.00409294     5.02095625
Ti      2.36192173    -0.87299677     4.02196091     0.00312106     0.00409294    -5.02095625
O       0.00004927     0.87281428     0.87352605     0.00067312     0.00146630    -1.27457807
O       2.36166831     0.87278508     4.48908835    -0.00067312    -0.00146630     1.27457807
O      -0.00002114    -0.87281092     3.55483347    -0.00243046    -0.00011159    -2.03499857
O       2.36173866     2.61841017     1.80778098     0.00243046     0.00011159     2.03499857
