# total energy = -19519.86559741 eV

CRYSTAL
PRIMVEC
        5.17575250     0.00001323     0.00000000
        0.00001429     5.50856584     0.00000000
        0.00000000     0.00000000     9.26345890
PRIMCOORD
23 1
Ti      1.85741375     3.29704265     3.41112483    -0.04447393     0.08585302     0.06740047
Ti      3.30824047     2.21258311     5.77056421    -0.00766678    -0.09014600     0.01647615
Ti      4.52887687     2.03169287     1.35644348    -0.06777636    -0.04792949    -0.02079406
Ti      0.82313393     3.25691695     7.95902071     0.08139627    -0.03759237     0.04787344
Ti      1.87612528     0.57582403     1.13637481    -0.14370184     0.04815858     0.12592034
Ti      3.21554575     5.10282409     7.98501012    -0.00758424    -0.03721493    -0.13527761
Ti      0.65916399     0.51561940     5.78951355     0.11919279     0.17919824    -0.04066047
Ti      4.40679145     4.90513652     3.45241263     0.01559426     0.05858672    -0.01231482
O       1.62606104     1.94526159     4.72390059    -0.00089963    -0.05957454    -0.05566338
O       3.52948663     3.58925278     4.52266988    -0.02306563    -0.06459333     0.11095985
O       0.86502176     1.98818734     0.08029083    -0.04457112     0.02607742     0.02303581
O       3.55978497     0.84216850     0.09899029     0.05548006     0.06557652    -0.05094334
O       1.68090424     4.65775869     9.20272959     0.05220781    -0.00205046    -0.14631459
O       4.23376567     0.82601017     4.74351594    -0.10078060    -0.06539372    -0.09369026
O       0.94962542     4.67086424     4.56403165    -0.00485964    -0.07090565     0.02478879
O       0.17067712     3.41111779     2.45618870    -0.06685282    -0.16367546    -0.08580880
O       4.99028679     2.12694930     6.78320744    -0.02767356     0.13585406     0.04734457
O       2.74662594     2.19238891     2.09445822     0.16010960     0.05122848     0.06964093
O       2.51928159     3.35821565     7.17824328    -0.01724105    -0.02646026    -0.03983566
O       0.19621254     0.59528649     2.18541568     0.16500626     0.06333426     0.00591585
O       4.96942645     4.84855736     7.26810446     0.02071333    -0.02096787    -0.01911744
O       2.38126148     0.64318508     6.74567539    -0.07350144     0.01559606     0.15679261
O       2.78947477     4.94121165     2.48553671    -0.03905224    -0.04295904     0.00427240
