# total energy = -78964.89340133 eV

CRYSTAL
PRIMVEC
       10.35150501     0.00002646     0.00000000
        0.00002858    11.01713167     0.00000000
        0.00000000     0.00000000     9.26345890
PRIMCOORD
94 1
Ti      7.19086444     8.68898255     3.27502070    -0.01195923    -0.01440975    -0.00108526
Ti      7.10382866     3.32868115     3.49279357    -0.00590171     0.00551579    -0.00859880
Ti      1.79870343     8.76888733     3.47047554    -0.01285783    -0.00039466    -0.00563920
Ti      1.84495022     3.40140369     3.48904446    -0.00391014     0.01500214     0.00623596
Ti      8.37179137     7.68818780     5.74200548    -0.01245083    -0.00735053     0.00399961
Ti      8.54412330     2.19490567     5.84299208    -0.00435005     0.00698569     0.00332598
Ti      3.32748704     7.64206034     5.79225579     0.01435499     0.00322416     0.01550941
Ti      3.16608114     2.26549226     5.84670292    -0.00703120     0.00226129     0.01467663
Ti      9.74318674     7.68798733     1.11008360     0.01249814    -0.00675995     0.00419244
Ti      9.57169954     2.19518373     1.21159404     0.00432305     0.00735876     0.00324165
Ti      4.43629040     7.64157698     1.16060764    -0.01447454     0.00330644     0.01523611
Ti      4.59724284     2.26547236     1.21466789     0.00731788     0.00244229     0.01476482
Ti      5.96512519     8.76863644     8.10225080     0.01286683    -0.00045689    -0.00578421
Ti      5.91864365     3.40146398     8.12067217     0.00454340     0.01518597     0.00624727
Ti      0.57278688     8.68912009     7.90668776     0.01207108    -0.01484581    -0.00086800
Ti      0.65939528     3.32903506     8.12478117     0.00617219     0.00525045    -0.00839003
Ti      7.04313537     6.04136226     1.18399783     0.01025896     0.00831161     0.00228006
Ti      7.01961428     0.53496991     1.18928656     0.01726522     0.02427894     0.01184353
Ti      1.90014093     6.05475921     1.22290874     0.01153037    -0.02476796     0.00875435
Ti      1.91292402     0.86012605     1.34614541    -0.00817508    -0.01112388     0.01232870
Ti      8.47612580    10.49426758     8.07009600    -0.01998802    -0.00381038     0.00383712
Ti      8.49446415     4.96340952     8.04655052    -0.01944140     0.01027645     0.02334820
Ti      3.48437618    10.39992103     7.92156218     0.00791797    -0.01563643     0.00174655
Ti      3.28932938     4.94219234     8.08683772    -0.02434039     0.01247474     0.01038546
Ti      5.86327431     6.05456068     5.85449029    -0.01216364    -0.02433396     0.00876464
Ti      5.85044556     0.86041127     5.97791294     0.00814706    -0.01120924     0.01243412
Ti      0.72068195     6.04148670     5.81572648    -0.01014815     0.00819102     0.00225049
Ti      0.74434956     0.53487973     5.82115416    -0.01723771     0.02462578     0.01174172
Ti      9.63925829    10.49389539     3.43837335     0.02013277    -0.00344914     0.00369750
Ti      9.62014465     4.96352938     3.41517429     0.01966406     0.01009827     0.02340862
Ti      4.28040954    10.40012809     3.28944303    -0.00861937    -0.01624655     0.00188025
Ti      4.47399838     4.94200899     3.45516446     0.02411773     0.01326484     0.01038777
O       6.76729448     7.47387347     4.71560519     0.00777013     0.01639079     0.02115299
O       6.84823803     1.92198445     4.72146085     0.02524079     0.02020451     0.00875821
O       1.59736864     7.43333321     4.75406815     0.00006891    -0.00219444    -0.01697469
O       1.67798026     1.87647137     4.67922967     0.00777502     0.01645327    -0.00313366
O       8.62297232     9.12649362     4.54735811    -0.01291183    -0.02226499     0.00865665
O       8.73537443     3.58435243     4.54171006    -0.01520988    -0.00531139    -0.00950974
O       3.48554410     9.09475935     4.54413775     0.02136922     0.00198515    -0.00931357
O       3.57880375     3.53971648     4.50818194     0.01406600     0.01341525     0.00300819
O       6.16646849     7.43315636     0.12230797    -0.00057747    -0.00188873    -0.01679162
O       6.08544088     1.87645199     0.04753464    -0.00770508     0.01644478    -0.00319408
O       0.99622457     7.47379593     0.08376522    -0.00752331     0.01630671     0.02117690
O       0.91524996     1.92187537     0.08970602    -0.02487646     0.02029707     0.00879112
O       9.49220028     9.12648717     9.17902775     0.01300902    -0.02201791     0.00846999
O       9.37964146     3.58430899     9.17344964     0.01493811    -0.00519646    -0.00939173
O       4.27857259     9.09488817     9.17586949    -0.02173020     0.00199158    -0.00960899
O       4.18466510     3.53985302     9.14002288    -0.01397549     0.01307252     0.00307247
O       8.72372120     6.33385258     0.07893324     0.01332295    -0.00106084    -0.00100787
O       8.68733613     0.83946993     0.10291863     0.01479053    -0.00691756     0.00064483
O       3.57447814     6.34584928     0.08740782     0.00490155    -0.00677692    -0.00543017
O       3.23543406     0.57925957     0.06008939    -0.02107174    -0.00878546    -0.01854512
O       6.86492186    10.15223316     9.19087473     0.00412714    -0.00098833     0.00742535
O       6.79671478     4.67389844     9.20126214    -0.01297328    -0.02003070     0.00322879
O       1.64388127     4.69729129     9.16252257     0.00367694     0.01012578     0.01787046
O       9.39133034     6.33400394     4.71067501    -0.01329698    -0.00110043    -0.00096365
O       9.42785979     0.83942655     4.73458580    -0.01486407    -0.00707954     0.00075668
O       4.18915234     6.34574385     4.71926059    -0.00527231    -0.00647661    -0.00529699
O       4.52842855     0.57920077     4.69182404     0.02111596    -0.00944675    -0.01860965
O       6.11962185     4.69724656     4.53077113    -0.00387157     0.01004196     0.01792651
O       0.89892337    10.15215243     4.55914566    -0.00413665    -0.00078136     0.00738524
O       0.96675247     4.67401593     4.56944349     0.01324890    -0.02009009     0.00358875
O       5.41688597     8.98433144     2.68003590    -0.00627658    -0.00483650    -0.03886995
O       5.39806698     3.38882968     2.44516310     0.01574004    -0.01190267     0.01140079
O       0.15400874     8.85627321     2.49922684    -0.00386257     0.00458042     0.00407494
O       0.20417679     3.35527847     2.50015257     0.00282050     0.00788969     0.00314986
O      10.10507907     7.59805885     6.75364059    -0.00540420     0.02068890     0.01205668
O      10.19547256     2.14378846     6.78276643    -0.00666276     0.01550710     0.00100530
O       4.96230720     7.66675389     6.77934419    -0.00426752    -0.01761798    -0.00889782
O       4.93165283     2.20099451     6.77389879     0.02459698    -0.04371648    -0.02537371
O       8.01014271     7.59797415     2.12198306     0.00526665     0.02020734     0.01199934
O       7.91976618     2.14381962     2.15100817     0.00657046     0.01567834     0.00120739
O       2.80140515     7.66672037     2.14750390     0.00387131    -0.01772648    -0.00877749
O       2.83163383     2.20086112     2.14208518    -0.02433164    -0.04387872    -0.02564574
O       7.60983164     8.85632729     7.13102856     0.00398521     0.00467632     0.00392299
O       7.55924891     3.35519404     7.13188592    -0.00272743     0.00828487     0.00320565
O       2.34697395     8.98458975     7.31202287     0.00638739    -0.00482519    -0.03903142
O       2.36534813     3.38896860     7.07684775    -0.01606117    -0.01160005     0.01187079
O       5.39237108     6.17001921     2.16867548     0.01891510    -0.00412868    -0.00921587
O       5.30146275     0.57760420     2.06524685    -0.02572158     0.00828076    -0.00810515
O       0.23881381     6.10635609     2.13435351    -0.00425672     0.01055978    -0.02375417
O       0.15074574     0.59281278     2.12655982    -0.00573125    -0.00741789     0.00234613
O      10.24857612    10.42542757     7.21152943     0.01858214     0.00038052    -0.00579733
O      10.13246763     4.90655350     7.12631208     0.01299050    -0.01433391    -0.00832344
O       5.11097387    10.40270815     7.08044392     0.00706694    -0.00320514    -0.01430665
O       4.96737266     4.89110244     7.11301451     0.00682705     0.02329960    -0.00193038
O       7.52467145     6.10642094     6.76612924     0.00413279     0.01065106    -0.02368501
O       7.61291170     0.59303306     6.75826775     0.00614674    -0.00741686     0.00228597
O       2.37120485     6.17010693     6.80041901    -0.01916964    -0.00442924    -0.00903974
O       2.46232702     0.57755257     6.69684574     0.02602729     0.00810335    -0.00762538
O       7.86665100    10.42532935     2.57980491    -0.01832374     0.00046563    -0.00585440
O       7.98238865     4.90646756     2.49462631    -0.01264135    -0.01440590    -0.00815991
O       2.65335005    10.40274256     2.44891618    -0.00728265    -0.00279196    -0.01454602
O       2.79614308     4.89110538     2.48121677    -0.00676586     0.02339988    -0.00188025
