# total energy = -19074.58166149 eV

CRYSTAL
PRIMVEC
        5.17600016     0.00000000     0.00000000
        0.00000000     5.50899976     0.00000000
        0.00000000     0.00000000     9.26300011
PRIMCOORD
22 1
Ti      2.03354700     3.49344998     3.29044002    -0.54457605    -1.04573978     0.36690093
Ti      3.45750699     2.26133801     5.98015998    -0.07846624     0.39108705    -0.97822233
Ti      4.37346402     2.33809200     1.23630802    -0.26709195    -0.58673470    -0.81208941
Ti      0.63899100     3.15057598     8.09274700     0.78628246     0.47856372    -0.12072697
Ti      1.86270302     0.46183098     1.34710499    -0.42809192     1.24811421    -0.98228236
Ti      3.12794900     5.11152102     8.04429601     1.03991134    -0.00813857     0.08842927
Ti      0.53575498     0.25384299     6.01691202     0.27073906     0.67971020    -1.72553148
Ti      4.58509798     4.93132998     3.36593202    -0.17646773     1.28542504     1.26046502
O       3.62546197     3.44367398     4.43616200    -0.96708353    -0.43849795     1.10080280
O       0.89813799     2.02262599     0.20743801     0.22525623    -0.46130210    -0.55452648
O       4.17355699     3.50764198     8.90167698     0.35536516     0.80362687     0.75716574
O       3.42447299     0.93654800     0.21894502     0.06479208    -0.72947906    -1.72763387
O       1.75418300     4.76376801     9.16896102    -2.60231192    -0.69353245     0.66645435
O       4.15722500     0.74181803     4.74701802     0.94680549    -0.83303876     0.14102506
O       1.10226198     4.75183999     4.35633000    -0.25307532     0.31790802     1.46166112
O       0.19708699     3.45743100     2.38593100     0.86550718    -0.33320815     0.12353255
O       0.08088099     2.12907201     6.43145001     0.76186520     0.08374600     1.55658037
O       2.70084999     1.96115502     2.24761999    -0.17920210     0.67780655     1.00224595
O       2.36537399     3.50361002     7.26774702     0.02416864    -0.97809171    -2.33753808
O       0.01042903     0.73682900     2.03027901     1.11731032    -1.00367909     1.01803202
O       2.42398799     0.69098002     6.58144302    -1.03513680     0.09681313     0.67197657
O       2.95378999     4.66648100     2.30798202     0.07350041     1.04864178    -0.97672054
