# total energy = -19516.88804141 eV

CRYSTAL
PRIMVEC
        5.17600016     0.00000000     0.00000000
        0.00000000     5.50899976     0.00000000
        0.00000000     0.00000000     9.26300011
PRIMCOORD
23 1
Ti      1.77084801     3.26288703     3.50328701     0.35901561    -0.79577755     2.34205088
Ti      3.55896101     2.14623302     5.78962198    -1.85315389     0.33051698    -2.24425276
Ti      4.28314002     2.15119998     1.44318299     0.12359040     0.03089284    -1.93368370
Ti      0.85793603     3.33612098     7.87590900     0.15490054     1.19373227     2.03983507
Ti      1.89102199     0.35316702     1.29898097     1.30755351    -0.33917491    -1.47706718
Ti      3.35766902     4.97916099     7.92767302     0.00804678     1.05991067     2.58422652
Ti      0.83738098     0.43536598     5.96552198     0.25780230     0.96737869    -2.65516431
Ti      4.43860098     4.95829399     3.37150299    -0.72442607     1.23558162     2.10760295
O       1.67511900     1.81603001     4.76711897     0.56901285     1.06181483    -0.56374286
O       3.52188997     3.55609700     4.39258600    -0.95414291    -0.91928234     1.16094761
O       4.57116099     3.19637400     9.23505299     1.06340532     0.02916378    -0.34629687
O       3.48159598     0.86001299     0.02483302    -0.34626653    -0.09932355     1.37985450
O       1.74710002     4.63721601     9.08006702    -0.25324836    -0.02961938     0.83831004
O       4.43601700     0.75065698     4.69285699    -0.88553017     1.82877056     1.09562588
O       0.87210300     4.61973798     4.66048801     1.02530284    -1.34795687    -0.59291178
O       5.10435602     3.55314202     2.52698398     2.82106171    -2.60477324    -1.34366852
O       5.14509499     2.26612299     6.66629898     0.71505851    -1.15212358     0.27430904
O       2.56314801     2.04014901     2.10150198    -0.57234217     0.80320933     0.07444940
O       2.75732399     3.48153799     7.12865802    -1.83133858    -2.87598384    -0.93555100
O       0.23969602     0.72057802     2.14012901    -0.50435421     0.45234540    -0.86386630
O       5.09509002     4.87132302     7.30033799     1.23020698     0.49334037    -0.72858714
O       2.74577100     0.53177302     6.60264901    -1.39337799     0.92558900     0.04153027
O       2.70155400     4.83130299     2.51848000    -0.31677674    -0.24823110    -0.25394898
