# total energy = -19947.26444841 eV

CRYSTAL
PRIMVEC
        4.83745988     0.00000000     0.00000000
        1.01953417     5.04656414     0.00000000
        0.00000000     0.00000000     8.70203705
PRIMCOORD
24 1
Ti      2.35752146     2.99058924     3.22839379     2.07842966    -0.78764926     0.41259536
Ti      3.49947235     2.05597502     5.47364360    -2.07842966     0.78764926    -0.41259536
Ti      4.58735600     2.05597683     1.12259014    -3.35622855    -0.40427064     1.88346823
Ti      1.26963783     2.99058762     7.57944735     3.35622855     0.40427064    -1.88346823
Ti      1.84775450     0.46730735     1.12262503     2.07847902    -0.78859568    -0.42253319
Ti      4.00923933     4.57925706     7.57941246    -2.07847902     0.78859568     0.42253319
Ti      0.75987078     0.46730540     5.47360871     3.35675383     0.40391840     1.89779468
Ti      5.09712305     4.57925901     3.22842868    -3.35675383    -0.40391840    -1.89779468
O       1.89008182     1.77698105     4.44058303    -1.49795045    -0.80736937    -0.69587216
O       3.96691199     3.26958322     4.26145436     1.49795045     0.80736937     0.69587216
O       1.24667101     1.77700137     0.08959236     1.50394344    -1.24455529    -0.23398076
O       4.61032285     3.26956294     8.61244478    -1.50394344     1.24455529     0.23398076
O       3.45714501     0.74630118     0.08956411     1.49828316     0.80736603    -0.69548212
O       2.39984880     4.30026308     8.61247303    -1.49828316    -0.80736603     0.69548212
O       4.10055587     0.74628091     4.44061128    -1.50384008     1.24447250    -0.23389951
O       1.75643790     4.30028341     4.26142611     1.50384008    -1.24447250     0.23389951
O       0.79589453     3.06960633     2.35063739    -0.78190156    -1.19221738    -1.78417862
O       5.06109929     1.97695794     6.35140000     0.78190156     1.19221738     1.78417862
O       2.99388172     1.97691080     2.00040899     0.77246226    -1.86416670    -1.65353156
O       2.86311210     3.06965346     6.70162825    -0.77246226     1.86416670     1.65353156
O       0.28612755     0.54632429     2.00038118    -0.78165267    -1.19246678     1.78459051
O       5.57086627     4.50024002     6.70165606     0.78165267     1.19246678    -1.78459051
O       2.35334511     0.54637138     6.35142776    -0.77240056     1.86404354    -1.65414143
O       3.50364870     4.50019288     2.35060958     0.77240056    -1.86404354     1.65414143
