# total energy = -19957.28535564 eV

CRYSTAL
PRIMVEC
        5.55099435     0.00000000     0.00000000
        0.00002581     4.83376652     0.00000000
        0.00000000     0.00000000     9.12310336
PRIMCOORD
24 1
Ti      2.01198375     2.86448547     3.38460639    -0.24358769     0.99802986    -1.71027403
Ti      3.53903647     1.96928085     5.73849733     0.24358769    -0.99802986     1.71027403
Ti      4.78738475     1.96928241     1.17690901    -0.24133540    -0.99852351     1.71132407
Ti      0.76363547     2.86448406     7.94619481     0.24133540     0.99852351    -1.71132407
Ti      2.01197105     0.44760231     1.17694560    -0.24387462     0.99795581     1.70986086
Ti      3.53904917     4.38616416     7.94615822     0.24387462    -0.99795581    -1.70986086
Ti      0.76362277     0.44760054     5.73846074     0.24131740     0.99771130     1.71126802
Ti      4.78739745     4.38616588     3.38464297    -0.24131740    -0.99771130    -1.71126802
O       1.75693386     1.70205129     4.65544995     0.43832183    -0.88180515     0.98709983
O       3.79408635     3.13171502     4.46765377    -0.43832183     0.88180515    -0.98709983
O       1.01861393     1.70207083     0.09392747    -0.43841490    -0.88189154     0.98712297
O       4.53240634     3.13169554     9.02917598     0.43841490     0.88189154    -0.98712297
O       3.79407365     0.71483171     0.09389786    -0.43859668     0.88166914     0.98697359
O       1.75694656     4.11893460     9.02920560     0.43859668    -0.88166914    -0.98697359
O       4.53239359     0.71481223     4.65547957     0.43836194     0.88183292     0.98686638
O       1.01862653     4.11895414     4.46762415    -0.43836194    -0.88183292    -0.98686638
O       0.20169607     2.94017083     2.46437791     0.66378606    -0.31382871     0.43076587
O       5.34932415     1.89359548     6.65872581    -0.66378606     0.31382871    -0.43076587
O       2.97719880     1.89355056     2.09720297     0.66387399     0.31354846    -0.43173775
O       2.57382142     2.94021576     7.02590059    -0.66387399    -0.31354846     0.43173775
O       0.20168332     0.52328752     2.09717382     0.66373670    -0.31375929    -0.43119781
O       5.34933690     4.31047880     7.02592974    -0.66373670     0.31375929     0.43119781
O       2.57380867     0.52333244     6.65875491    -0.66388351    -0.31385725    -0.43086691
O       2.97721155     4.31043387     2.46434876     0.66388351     0.31385725     0.43086691
