# total energy = -19960.73701661 eV

CRYSTAL
PRIMVEC
        5.93400000     0.00000000     0.00000000
        0.00000000     9.29699974     0.00000000
        0.00000000     0.00000000     4.64899994
PRIMCOORD
24 1
Ti      4.39110599     6.98872398     2.32078599     1.12543475    -0.50100278     0.19469377
Ti      4.50288903     2.23480898     2.30879098     0.13922092     1.44085857     0.42368042
Ti      1.50080299     7.02652401     2.35750799    -1.03448374    -0.88659923    -0.04470379
Ti      1.49351600     2.37937602     2.28508399    -0.14920323     0.33417412     0.00220524
Ti      2.96623502     4.64145001     0.01307502     0.73259138    -0.24955111     0.50461389
Ti      2.96300799     9.27574899     4.63485901    -0.16740356     0.09812850    -1.00645871
Ti      0.02367798     4.70713102     4.59588097    -0.82106462     0.22160141     0.63139812
Ti      5.92065600     9.28024499     0.09640302     0.25454908    -0.73239263    -0.66696549
O       4.45519402     5.49627898     0.91870298    -0.94114880     0.76112421     0.44620406
O       4.51056601     0.90727201     0.91750498    -0.68264151    -0.31385545    -0.91140010
O       1.43395901     5.48655402     1.02435402     0.76944713     0.53232037    -0.31669164
O       1.48901101     0.88279201     0.81992898    -0.09092607     0.24493752     0.26128820
O       4.46902200     8.32616698     3.76238098    -0.15403125     0.96074139     0.09700159
O       4.46391099     3.67181801     3.80825001    -0.86713649     0.08135796    -0.68163570
O       1.50360101     8.35822898     3.67990802     0.17344386     0.62816136     0.84145836
O       1.39898701     3.79626399     3.77424799     1.30041870    -0.97147729    -1.12858589
O       2.99862702     6.07666402     3.19933099    -0.46317695    -0.23034830     0.36952191
O       2.85679699     1.29476301     3.17982599     0.84545257     0.90288383    -0.26521402
O       0.05449901     6.22813000     3.40680001    -0.16124011    -0.32288028    -1.31756205
O       0.05644400     1.40334298     3.04839598    -0.79513117    -0.72789526     1.47885332
O       3.04386898     7.96224501     1.42180598    -0.64324500    -0.61910336     0.22747921
O       2.90986399     3.27285202     1.47754602     0.55153988    -0.16029446    -0.55653708
O       5.88112101     7.83894401     1.37173501     0.81980992     0.41861097    -0.07767640
O       5.85597700     3.22917500     1.30580900     0.25892484    -0.90950057     1.49503251
