# total energy = -4988.82570282 eV

CRYSTAL
PRIMVEC
        3.41035100     0.00000000     0.00000000
        0.00000000     4.37196174     0.00000000
        0.00000000    -0.00006420     4.90680338
PRIMCOORD
6 1
Ti      1.70517550     2.18594872     2.45340180     0.00000000     0.00000000     0.00000000
Ti      0.00000000     0.00000000     0.00000000     0.00000000     0.00000000     0.00000000
O       1.70517550     0.85201843     0.95626377     0.00000000     0.12774711     0.06005559
O       1.70517550     3.51987901     3.95053983     0.00000000    -0.12774711    -0.06005559
O       0.00000000     1.33390431     3.40966645     0.00000000    -0.12788723     0.06010007
O       0.00000000     3.03799312     1.49713715     0.00000000     0.12788723    -0.06010007
