# total energy = -4990.17814254 eV

CRYSTAL
PRIMVEC
        2.98537146     0.00000000     0.00000000
        0.46659615     4.65429972     0.00000000
       -0.00000311    -0.00006070     4.68350204
PRIMCOORD
6 1
Ti      1.72598231     2.32711951     2.34175102     0.00000000     0.00000000     0.00000000
Ti      0.00000000     0.00000000     0.00000000     0.00000000     0.00000000     0.00000000
O       1.58361784     0.90704267     0.91274556    -0.41705237     0.05398187     0.03520484
O       1.86834682     3.74719634     3.77075643     0.41705237    -0.05398187    -0.03520484
O       0.14236319     1.42005223     3.25449753     0.41704903    -0.05454083     0.03567304
O       0.32423006     3.23418668     1.42900446    -0.41704903     0.05454083    -0.03567304
