# total energy = -19516.57551390 eV

CRYSTAL
PRIMVEC
        7.60600008     0.00000000     0.00000000
        0.00000000     7.60600008     0.00000000
       -1.89786986    -1.89786986     4.85670466
PRIMCOORD
23 1
Ti      3.79462798     6.62640801     1.18591098     0.69161338     0.56137179     0.93133593
Ti      3.65881602     2.84476699     1.24717500     1.16522310    -1.22988354     0.46391923
Ti      0.15968802     6.80074699     1.12711299    -0.77032593     0.63687946    -1.19116297
Ti     -0.05080398     3.02273200     1.13176599    -1.05312630    -1.47091658     2.88881391
Ti      5.58396423     2.81931621     3.78912681    -1.10342096     2.82859762    -2.14619856
Ti      5.77989120    -0.80173179     3.51751982    -1.03692989    -2.26857823     0.38836065
Ti      1.98931021     2.70737421     3.82445580    -1.32153029    -0.26608305    -0.88387412
Ti      1.90677322    -1.08168577     3.55115580     1.55040252     0.16588018     1.50987421
O       4.20253098     4.62731299     0.83396800    -1.54505591    -0.52481223     0.91499245
O       3.53097701     0.91568397     0.63998300    -0.08510535    -0.03013411     0.92088490
O      -0.31403500     4.92483401     0.87506602     0.65513738    -1.54143811    -0.85899740
O       0.21220002     0.95679798     0.76392001     0.01253825     1.92343142    -0.02614402
O       5.82037522     4.90412021     4.01485981     0.22337650    -1.59185232    -0.93346557
O       5.36779522     1.02514122     4.19962680     0.72282453    -0.81607616    -1.96259088
O       2.03302221     4.56617725     4.23013281    -1.11895634     1.41129088    -2.06337764
O       2.13372522     0.82260820     4.02066382    -1.28254464    -0.24986813     0.18694652
O       3.61445122     2.73295623     3.28241483     4.47670313     0.52002638    -1.73680423
O       3.78865225     6.31094021     3.21365883    -0.12045391     1.04716803    -0.06858857
O       0.09108924    -0.85725275     2.99639379    -1.17926416     0.18228871     2.05808991
O       5.58243999     6.96112400     1.64395099     1.39232178     0.27453710     0.30020983
O       5.71363398     2.68423398     1.64211199     0.37616076     0.01496125     1.58820289
O       1.94407498     6.37193201     1.50673501    -0.06667053    -0.04201750     0.23421730
O       1.76798400     2.95016301     1.74818499    -0.58291738     0.46522689    -0.51464428
