# total energy = -19961.13719774 eV

CRYSTAL
PRIMVEC
        5.93400000     0.00000000     0.00000000
        0.00000000     9.29699974     0.00000000
        0.00000000     0.00000000     4.64899994
PRIMCOORD
24 1
Ti      4.47982103     6.98337399     2.35674401     0.21829728     0.21878656    -0.07531175
Ti      4.44626701     2.41298598     2.38031097    -0.36234287    -0.61464301    -0.38178248
Ti      1.50235400     6.89289998     2.20393101    -0.33440577     0.67189198     0.58412015
Ti      1.48753201     2.35585103     2.38314498     0.27625922    -0.70759922    -0.59752614
Ti      2.97150399     4.65011699     4.64839298    -0.34854119     0.45077729     0.03855165
Ti      2.97789100     9.24512598     0.01986600    -0.94764239     0.14608936     0.04108727
Ti      5.89874701     4.63427098     4.62943102     0.55118687     0.47704111     0.27688760
Ti      5.93340198     0.05665901     4.59334600     0.83228131    -0.33001793     0.60101384
O       4.45102198     5.56655202     0.82706901    -0.14191261     0.20963369     0.42851898
O       4.41569300     0.74777402     0.86497800     0.50445320     1.74613322     1.55403523
O       1.48732500     5.55729899     0.83949298    -0.04225738    -0.12629675     0.09589936
O       1.46690500     0.90514297     1.00117600    -0.08314951     0.01520500    -0.42313509
O       4.41798799     8.37914302     3.76544100     0.32427254    -0.79224100    -1.08091248
O       4.46090802     3.74812097     3.81624699    -0.27250901    -0.67595818    -0.88619762
O       1.46717102     8.38916601     3.80580299    -0.20732484    -0.06808618    -0.73329766
O       1.47206501     3.76199299     3.73186698     0.17835364    -0.16620800     0.19179074
O       2.95271603     5.98914398     3.09831899     0.38437878    -0.25862376     0.90941264
O       3.04972401     1.46723902     3.25223897    -0.50924214    -0.06724646    -0.02806951
O       5.89635899     6.03871899     3.23068098    -0.01279690    -0.02845569    -0.26353123
O       5.89021402     1.52989498     3.30354800     0.33951121    -0.63354165     0.06124524
O       2.91040598     7.83857301     1.41252902     0.54673449     0.17515107     0.01382046
O       2.97429302     3.30663400     1.48824101     0.06839394    -0.13003385    -0.40896702
O       0.03138799     7.81096102     1.38427800    -0.66399201     0.10541861     0.32829323
O       0.03240502     3.21225598     1.43290198    -0.29800639     0.38282378    -0.24594513
