# total energy = -4983.98903866 eV

CRYSTAL
PRIMVEC
        2.79000337     0.00000000     0.00000000
        1.28259634     4.17912765     0.00000000
       -0.00000854    -0.00005729     4.42266179
PRIMCOORD
6 1
Ti      2.03629564     2.08953522     2.21133090     0.00000000     0.00000000     0.00000000
Ti      0.00000000     0.00000000     0.00000000     0.00000000     0.00000000     0.00000000
O       1.64495916     0.81443935     0.86191163    -5.62669141     2.53289288     3.02092341
O       2.42763216     3.36463109     3.56075011     5.62669141    -2.53289288    -3.02092341
O       0.39133297     1.27507268     3.07324350     5.62723545    -2.53363850     3.02215882
O       0.89125501     2.90399755     1.34941829    -5.62723545     2.53363850    -3.02215882
