# total energy = -19517.77494149 eV

CRYSTAL
PRIMVEC
        5.17600016     0.00000000     0.00000000
        0.00000000     5.50899976     0.00000000
        0.00000000     0.00000000     9.26300011
PRIMCOORD
23 1
Ti      1.85540598     3.19274802     3.54979799     0.10340724     0.53248955    -0.20120150
Ti      3.47023502     2.22495999     5.80411101     0.06694101    -0.38413324    -1.05226087
Ti      4.40717002     2.16670900     1.41792600    -1.26901754    -0.91027884     0.03343567
Ti      0.80681200     3.45107500     7.79583702    -0.21468488     0.63990076     0.36154095
Ti      1.90699701     0.34359701     1.39007799     2.59704064    -1.72231091    -0.81407918
Ti      3.23520698     5.04027699     8.02543798    -0.47277360     1.03775598     0.92856556
Ti      0.77340800     0.47226799     5.91419501     0.28614872     1.03795756    -1.42137860
Ti      4.52567699     4.93352299     3.30121602    -0.86094373     0.19489329     2.15997891
O       1.60365700     1.89667699     4.74634797     0.65473423     0.01839419     0.60506127
O       3.54765202     3.58984797     4.34720100    -0.15247444    -0.80211738     1.81945751
O       4.94208402     2.81435702     9.12125998    -0.26729301     0.31736681    -0.02523076
O       3.39135301     0.83304803     0.15241998    -0.50583697    -0.27139984     0.31178597
O       1.71695999     4.50194900     9.25680201     0.32784431     0.19310997    -0.90607175
O       4.33040000     0.90312300     4.75110602    -0.60169698    -0.59475372    -0.69535125
O       0.87451002     4.75682500     4.52509002     0.91551721    -1.65952866    -0.67652254
O       0.16122501     3.47566502     2.33438802     1.21729773    -0.34333650     0.96950320
O       5.13352998     2.03721398     6.73721402    -0.22520070     1.42904666     0.29998640
O       2.71531198     1.88676900     2.30753598    -0.56502815     0.39195068    -0.33585073
O       2.53633502     3.54402599     6.98984202     0.33655830    -1.08719266     0.05943750
O       0.16618801     0.59137098     1.98422302    -0.08863496     1.09108737    -0.34497944
O       5.01203099     5.01314099     7.29266000    -0.01064848    -1.06525086     0.19153877
O       2.56391198     0.71597999     6.83850802    -0.86935098     0.46692845    -0.44220780
O       2.82969798     4.56552202     2.38487597    -0.40190523     1.48942133    -0.82515756
