# total energy = -4987.83693579 eV

CRYSTAL
PRIMVEC
        3.23786557     0.00000000     0.00000000
        0.50605951     5.04794696     0.00000000
       -0.00000337    -0.00006583     5.07961913
PRIMCOORD
6 1
Ti      1.87196091     2.52394056     2.53980957     0.00000000     0.00000000     0.00000000
Ti      0.00000000     0.00000000     0.00000000     0.00000000     0.00000000     0.00000000
O       1.71755567     0.98375773     0.98994294     0.33221596    -0.61323970    -0.66117665
O       2.02636621     4.06412339     4.08967613    -0.33221596     0.61323970     0.66117665
O       0.15440386     1.54015615     3.52975354    -0.33229567     0.61281315    -0.65990807
O       0.35165251     3.50772485     1.54986554     0.33229567    -0.61281315     0.65990807
