# total energy = -4990.09008782 eV

CRYSTAL
PRIMVEC
        3.67003802     0.00000000     0.00000000
       -0.00000817     3.67003802     0.00000000
       -1.83504779    -1.83505188     4.68378475
PRIMCOORD
6 1
Ti     -0.00016162     2.75266752     1.17094606     0.00209931    -0.00173704    -0.00168227
Ti      1.83514358    -0.91768148     3.51283838    -0.00209931     0.00173704     0.00168227
O       0.00003666     0.91750327     0.76295021     0.00008536     0.00089526     0.65608201
O       1.83494520     0.91748267     3.92083428    -0.00008536    -0.00089526    -0.65608201
O      -0.00002073    -0.91748734     3.10484253     0.00089963     0.00011596     0.65588635
O       1.83500253     2.75247323     1.57894196    -0.00089963    -0.00011596    -0.65588635
