# total energy = -19517.01053270 eV

CRYSTAL
PRIMVEC
        5.93400000     0.00000000     0.00000000
        0.00000000     9.29699974     0.00000000
        0.00000000     0.00000000     4.64899994
PRIMCOORD
23 1
Ti      4.33586799     6.98154399     2.20814199     1.09572436     0.30963318    -1.11611964
Ti      4.56009102     2.27117901     2.40714201     0.64989927     0.89860603    -0.22867374
Ti      1.40115002     6.98040801     2.31484101    -1.48213611     0.65532250    -0.39784185
Ti      1.50912599     2.35999300     2.32608401    -0.26681067     0.46107507    -0.12502791
Ti      2.91381398     4.47502102     0.15258498     0.91258538     0.25930305     0.24309275
Ti      2.93254199     0.29815000     0.00414700    -0.26994819    -1.71057331     0.11415188
Ti      0.03876001     4.58861003     0.01366002    -0.88630021     0.79910199    -0.37195315
Ti      5.86292203     9.25784698     4.49910102     1.48683094    -1.20560075     0.40672296
O       4.25708799     5.52903399     0.92009001     1.08031727     0.29259165    -0.13301479
O       4.70847301     0.95169099     0.86113199    -1.96630381    -0.04343392     0.54613414
O       1.42515398     5.49448999     0.96916601     0.33367969     0.27377785    -0.12936973
O       1.54977601     1.14070602     0.86083401     0.46357804    -0.94706851     0.01301827
O       4.60277102     8.43163201     3.52196501    -0.95434937     0.02182996     0.45387367
O       4.35704201     3.46830803     3.81812901     0.58553734     1.89522126     0.89072482
O       1.70094502     8.45292001     3.75756298    -0.71017829    -0.40731354    -0.53783384
O       1.48532699     3.70100102     3.83278103    -0.18595305    -0.07691432    -0.55055438
O       3.03884301     1.45719402     3.20120798    -0.42562417    -0.96716118     0.13263503
O       0.00427501     5.97055901     3.29005298    -0.04953746     0.42178732    -0.28767827
O       0.16751900     1.45373902     3.32818898    -0.49874946     0.08782429    -1.15155357
O       2.87453898     7.76691003     1.29324300     0.68399931     0.26915115     1.22753895
O       3.01094701     3.35254198     1.53780899     0.21574495    -1.25792169     0.53104433
O       5.85301101     7.72310198     1.26129699     0.77846836     0.46375262     0.44925262
O       0.06609397     3.34339298     1.54608802    -0.59047360    -0.49299122     0.02143118
