# total energy = -39031.47465124 eV

CRYSTAL
PRIMVEC
        5.93200024     0.00000000     0.00000000
        0.00000000     9.29399984     0.00000000
        0.00000000     0.00000000     9.29399984
PRIMCOORD
46 1
Ti      4.39958998     6.91626199     6.92478000     0.62189892     1.70226916    -0.06198238
Ti      4.49791502     6.94530398     2.48371401    -0.84529727    -0.14512006    -1.80007396
Ti      4.44785099     1.97381701     7.15497999     0.38489814     2.46406494    -1.42050443
Ti      4.59518500     1.96717399     2.59330000     0.17832741     1.46642872    -1.76901219
Ti      1.40649201     7.04287998     6.99715599     0.47918824     0.01249942    -1.27871703
Ti      1.46808999     6.99364400     2.35880002     0.88778065    -0.43877409    -1.77485117
Ti      1.42012002     2.41672303     6.77656200     0.04105668     1.14248837    -0.88479432
Ti      1.62862300     2.77525897     2.15117998    -1.40239100    -0.17151578    -0.78117162
Ti      3.00530402     4.66931898     4.57981600     0.10012471     0.13297699     1.09924882
Ti      2.94856701     5.00231598     9.18276699    -0.50412513    -1.63839367     1.23386489
Ti      2.93433198     0.00970897     4.84824899    -0.18368508     0.75020524     0.33211235
Ti      2.95059201     0.02600901     9.25470700     1.79786281    -0.98170154     0.62424377
Ti      0.01069398     4.69802001     4.62080401    -0.24978148    -0.90710353     0.91608183
Ti      5.87787398     4.65847201     8.94804503    -0.68567387    -1.73005611     1.80555427
Ti      0.01209202     8.98053000     4.58873401    -0.86151785     2.09509376     1.28345147
Ti      0.11002399     0.11889602     0.13830402    -1.50141707    -1.30770135     0.85436478
O       4.52711201     5.43214698     5.70893600    -0.85767662     0.95568480    -0.83619736
O       4.50281198     5.49023498     0.75696699    -0.51182044    -0.21365335     0.54685945
O       4.50252897     0.80380601     5.62641700    -0.51964534     0.06653940    -0.94525794
O       4.43758998     0.53734103     1.24153799     0.47161814     2.12640003     0.31309672
O       1.71853699     5.66984202     5.71898200    -0.54155603    -0.48274177    -1.14243129
O       1.39010202     5.62876998     0.83368600     1.02170047    -0.80651088     0.16754883
O       1.25404102     0.96463298     5.50299699     0.69372991    -0.88428344    -0.94692916
O       1.55533602     1.05898999     0.87497903     0.76320115    -0.10476067     0.55937635
O       4.53136702     8.26980902     8.47266801    -0.81800423     1.11872160    -0.63694836
O       4.37082401     8.18865699     3.89557098    -1.02935593     1.25564420    -0.60675357
O       4.37185098     3.72239698     8.10052400    -0.17019167     0.36090331     1.61681337
O       4.54722201     3.84993103     3.73650500     0.47389151    -1.00218887    -0.56313479
O       1.50788698     8.46112200     8.58860900    -0.40110330    -1.57240680    -1.27271094
O       1.43244699     8.05786099     4.13703598     2.73595971     0.81615355    -3.03437311
O       1.48624098     3.75436500     8.48668200     0.99369215    -0.73788528    -1.13573768
O       1.49983703     4.19546599     3.41902099    -0.34074457    -1.82239114     0.73351364
O       2.95523401     6.16440198     7.85965998    -0.49851729     0.39246027     0.00090786
O       3.03834500     5.95321898     3.10620902     0.01509907     0.60228500     0.32753347
O       2.81706202     1.31245197     7.64168901     0.20019954    -0.37832769     1.72317558
O       2.82291297     1.78559502     3.20094101     0.93163238    -1.32141587     0.52420288
O       0.02283998     6.05647199     7.73952500    -0.48509561    -0.20205844     0.94042170
O       0.02913200     6.19015301     3.45825599    -0.64342806    -0.03806108    -0.85538474
O       5.91821898     1.30818300     8.00579302    -0.02253804     0.76255786    -0.63641306
O       2.86390199     8.12642998     6.24497599     0.69023424    -0.52288133     0.18866633
O       2.95742502     7.78035198     1.47828999    -0.69336842     0.62082831     0.24113948
O       2.78624702     3.23838998     5.78436402    -0.67312946    -1.08130175     0.99932698
O       5.89170398     7.70646100     5.92609103    -0.54141591     0.36128538     1.78705980
O       5.88903502     7.65610798     1.29523001     0.98260992     0.81470859     1.92869087
O       5.75626201     3.22319000     6.08091601     1.67361317    -0.84619176     0.10463957
O       5.91978800     3.08071998     1.28427598    -1.15683821    -0.68277290     1.53148408
