# total energy = -19518.53079231 eV

CRYSTAL
PRIMVEC
        7.60600008     0.00000000     0.00000000
        0.00000000     7.60600008     0.00000000
       -1.89786986    -1.89786986     4.85670466
PRIMCOORD
23 1
Ti      3.76417902     6.57029500     1.30363202    -0.40022475    -0.25083409    -1.64014074
Ti      3.78813799     2.72837800     1.17646099     0.26764448     0.77785875     1.57319227
Ti     -0.11669898     6.70652401     1.07108201     0.67424557     0.22930958     0.36756402
Ti     -0.05290502     2.87371801     1.16642202     0.22834567    -0.31909022     0.74192577
Ti      5.68553324     2.83448825     3.76484684    -0.48001203     1.06816803    -1.26031024
Ti      5.74022720    -0.85437778     3.57037483    -0.00713379    -0.64591663     0.45059500
Ti      2.12374325     2.82088421     3.71114784     0.29302539     1.41624874    -0.16674330
Ti      1.85373024    -0.98306575     3.59350681    -0.14676299    -1.14321573     0.07468877
O       3.94394100     4.70200303     0.88757201    -0.13832669     0.27896145    -0.07187882
O       3.44517102     0.92566299     0.72341398     0.60294397     0.31382228    -0.06031682
O      -0.29349499     4.75039999     0.83331002     0.35750714     0.97469349     0.33531646
O       0.04974600     1.00543000     0.70313400     0.32173486    -0.92413427     0.06866802
O       5.88823522     4.69627622     3.94389079    -0.02882208     0.90845002     0.92537405
O       5.66994823     0.99678123     4.11888483     0.60147176    -0.75005046    -0.86728664
O       1.94257920     4.64806023     4.05385683    -0.52224292     1.50056064     0.36811732
O       2.13978621     0.97608622     4.10812179    -0.76423293    -1.75859485    -0.34415437
O       3.91614121     2.99378621     3.31587582    -1.06581496    -0.69145886    -1.14526799
O       3.81865824    -1.06453476     3.19033979    -0.54540883     0.12178857     0.56548735
O      -0.05986275    -0.98863180     3.14202479     1.30051408     0.44737983    -0.26484584
O       5.67110998    -0.47150100     1.61764702    -0.01202068    -1.05425682    -0.30512450
O       5.77857302     2.69845398     1.75377299    -0.09979586    -0.15658564    -0.25228393
O       1.87334700     6.48731202     1.51031098    -0.48699180     0.36539966     1.08303930
O       1.81370100     3.05047501     1.75962802     0.05035713    -0.70850348    -0.17561541
