# total energy = -39021.68119047 eV

CRYSTAL
PRIMVEC
        5.93200024     0.00000000     0.00000000
        0.00000000     9.29399984     0.00000000
        0.00000000     0.00000000     9.29399984
PRIMCOORD
46 1
Ti      4.64396302     7.15114202     7.02013297    -0.11894879    -1.28359210    -1.12730523
Ti      4.23203399     6.76706703     2.02364302    -1.67560706     1.10143606    -0.46084804
Ti      4.31405599     3.01608802     6.77349298     0.67737692    -1.06710231     1.39442675
Ti      4.54875202     2.44465999     3.62802600     0.31470726    -2.56776656    -2.17577320
Ti      1.70391899     7.25753898     6.63196702     0.31488209     2.54027503     2.14459394
Ti      1.27216597     6.78716798     2.29729402     2.26366923    -0.21188392    -1.94270210
Ti      1.26962000     2.00351301     8.07241601    -0.36314069    -2.02646225    -1.52994116
Ti      1.78800399     2.21146602     4.05687500    -3.74886469     2.06313390    -1.60200561
Ti      3.00806601     5.09118098     4.82564698     1.25571517    -1.56903120    -0.93326091
Ti      2.88868600     4.52123301     8.87527500     0.60128098     0.14555303    -0.43898775
Ti      2.98481401     8.99664001     3.77185399     1.40131705    -1.01817291     0.63297704
Ti      3.14293397     0.19393103     0.06679900    -1.56837788    -1.41581730    -0.76427510
Ti      0.08377701     4.82858101     4.58801200    -2.61469564    -1.90702469    -1.00203949
Ti      0.00332699     5.28062702     9.23979097    -1.30486336    -0.47454869    -1.28632930
Ti      5.89578600     9.19857098     4.37565100     0.17652944     0.61923474    -0.22935509
Ti      5.79634200     8.91325702     0.00024998     2.26383892     1.51812976    -0.04809276
O       4.42187400     5.02652299     6.11907398     3.00042605    -1.11056965    -3.06679422
O       4.12898000     5.33709801     0.79694602     0.75929461     0.34159304     0.11068063
O       4.30736899     0.70993002     4.66428100     0.52163203     1.98225365     1.10283346
O       4.56439900     0.09701798     1.26221400     0.87915434     2.31283054    -1.51900934
O       1.40153902     5.63151599     5.50164298    -0.84408294     2.53592935     0.86322610
O       1.52316401     5.24941202     0.85722899     1.85563706     0.62827063     0.62803589
O       1.57134602     0.82591001     5.05761501    -0.42593374    -2.74840154     1.83925604
O       1.37679400     0.78878103     0.21543700    -1.01553419     0.20373198     1.82566596
O       4.32793901     8.53857899     8.21769898    -0.12722157    -0.30612003    -0.49833011
O       4.72162799     8.15163199     3.31209099    -1.01371513    -0.63225764     0.41890537
O       4.79761202     4.02061403     8.39441502    -1.67130586    -0.67479939    -1.32459504
O       4.44841002     4.19974698     3.63279902    -2.18227604     1.86020771    -2.33073108
O       1.82638601     8.25006399     8.21236598    -0.43189047     0.22525957    -1.76195708
O       1.30701500     8.48717202     3.01711002    -0.41062050     0.02242106     1.30549457
O       1.05332398     3.21393400     9.15077299     0.55042428     5.32336411     1.79088817
O       1.61686902     4.10169499     3.87004701    -0.83784364     0.15203324    -1.94141038
O       3.01055801     6.06608402     7.21275498    -1.24359087     0.53587518     3.19638481
O       2.84961801     6.10897299     3.10002902     0.17413548     0.36810035     1.37117600
O       3.07817601     1.93486899     8.13250001     2.96374205    -0.22616692    -0.82413143
O       2.89623800     1.58104298     2.85198301     1.61380518    -0.61310703    -1.61015472
O       0.35919700     6.18497898     7.56016100    -1.91469095    -0.22465074     1.84916353
O       5.71483701     5.91925702     2.77723900     1.89834978    -1.04034612     2.57081718
O       5.51321101     1.64264699     7.74576400    -1.66956008    -0.44677022    -2.25656809
O       2.98570202     8.10873800     5.42291400    -0.66172275    -2.19738719     0.59006454
O       2.93173399     7.74902600     1.16981600    -0.71987136    -0.07766149     0.48075302
O       3.04304298     2.87662902     5.20058102     2.15893838     1.42235382     3.03778908
O       5.73508698     8.33343899     6.11054798     1.36688559    -1.15809446    -1.65249335
O       0.22150698     7.37049700     0.82976400    -1.73411999    -1.52701422    -0.31882719
O       5.56554902     2.91876100     4.96978799     3.55853305     0.58966113     5.86078709
O       0.27947200     1.60908699     3.03983299    -2.27179649     0.03309988    -0.36800187
