# total energy = -39032.99554189 eV

CRYSTAL
PRIMVEC
        5.93200024     0.00000000     0.00000000
        0.00000000     9.29399984     0.00000000
        0.00000000     0.00000000     9.29399984
PRIMCOORD
46 1
Ti      4.48246199     7.31203000     6.90548302    -1.64160678    -0.84230142     0.84347025
Ti      4.55098399     6.53757301     2.45215202    -0.60364202     1.46983852    -1.10805460
Ti      4.43156001     2.16231900     7.14154402    -1.05831788     0.71558147    -1.31030665
Ti      4.50142098     2.56205701     2.09564399     0.23667270    -0.10210677     0.22029349
Ti      1.46562799     6.85958102     7.09496102     0.65664199     0.66759695     0.06723874
Ti      1.47938501     7.02218602     2.05845198     0.14026607     0.59940150    -0.33589316
Ti      1.42136501     2.47396000     6.79250902     1.12098597    -0.18082858    -0.56770442
Ti      1.52455299     2.03069002     2.64992599    -1.14073050     1.85061415    -0.69501829
Ti      2.99978602     4.61406599     4.54966099    -0.44611459    -0.18387740     1.05625996
Ti      2.93245102     4.81900602     9.05033800    -0.09229107    -0.51119232     0.53988610
Ti      2.83910701     9.22314200     4.58553799     0.31038395    -0.42589645     1.09304192
Ti      2.88384302     0.05825702     0.23708400     1.58907013    -1.49738404    -2.15461867
Ti      0.01419502     4.75882301     4.65091398    -0.01425574    -0.70554157     1.08641387
Ti      5.90763301     4.66637400     9.13293098    -0.27901648    -0.01300644     0.12429874
Ti      5.83120801     9.04196901     4.91565400     1.29207263     2.25342338    -1.42612023
Ti      0.03430900     0.13408701     9.28881898    -1.57028076    -2.02494735    -1.80625875
O       4.57037802     5.65641500     5.52723801    -0.76702823    -0.16505640    -0.87229952
O       4.40533001     5.25441899     0.93819099    -0.37120393     0.98091556     1.62254050
O       4.60235302     0.80751099     5.76129200    -1.48966147     0.93470176    -0.20103797
O       4.53027802     0.80492098     0.91069801    -0.78676043     2.10060955     1.20592959
O       1.49076698     5.57098399     5.49873600     0.24875175     0.39010103     0.34003212
O       1.37972898     5.83730000     0.49279298     0.94840060    -0.21456661     2.08783964
O       1.38996999     1.00259298     5.55434898     1.30745941    -0.05053428    -1.16103066
O       1.35922399     0.66918199     1.09072602     1.08435725     1.18401273     2.01029129
O       4.43426400     8.39448498     8.49439698     0.30776785    -0.37273476    -1.46078540
O       4.50746498     8.10716602     4.25085000    -1.53021344    -0.47975183    -2.74475417
O       4.41544402     3.81998002     8.32116298    -0.09677173    -1.06386760     0.12426249
O       4.49576900     4.03255099     3.41920498    -0.69093589    -0.35935988     0.34942256
O       1.67095898     8.46274599     8.27943698    -0.75420048    -0.15663758     1.67792851
O       1.38228400     8.37003900     3.74243999     0.88521855     1.50111394    -0.12552027
O       1.43200502     3.89393301     8.36832198     0.91495671    -1.81313491    -1.04546493
O       1.40350798     3.56494299     3.86974998     1.07160483    -0.23953589    -0.95180577
O       3.00867102     5.98551297     7.75220498     1.00234931     1.46652591    -1.00319366
O       2.84053802     6.23254000     3.18407200     0.54895618    -1.88294476     0.66331555
O       2.83314001     1.55969401     7.87468999     0.68016734    -0.23511616     0.76092520
O       3.26741102     1.61777301     3.20929301    -0.49011209    -1.73957048     0.67527016
O       5.82578601     6.07842300     7.80322201    -0.34106802     0.19287369    -0.11978568
O       0.22183100     5.98658398     3.12227701    -0.16178544    -0.82192774     0.72209433
O       0.06893798     1.50135100     7.98511002     0.00811569     0.13061466     0.01535129
O       2.86515100     7.94614998     6.05152498    -0.10112024    -0.30332575     0.42875629
O       3.02388698     7.88000002     1.38012602     0.04792358    -0.07403726     0.52610215
O       3.07646402     3.29072101     6.01201502    -0.73277470    -0.05999954    -0.26918252
O       0.15355300     8.06515602     6.35137200     0.43994908    -1.23810465     0.81685006
O       5.76915298     7.72017902     1.51588501    -0.32618030     0.55770385    -0.25847721
O       5.80975501     3.24161902     6.05728698     0.38787471     0.08684958     0.13198994
O       0.23939503     2.94754602     1.38952601     0.25612542     0.67481019     0.42750802
