# total energy = -19518.76811364 eV

CRYSTAL
PRIMVEC
        7.60600008     0.00000000     0.00000000
        0.00000000     7.60600008     0.00000000
       -1.89786986    -1.89786986     4.85670466
PRIMCOORD
23 1
Ti      3.76042397     6.58664801     1.27849499     1.50676317     0.01970289    -0.43143898
Ti      3.71348802     2.76444598     1.14351399     0.47207528     0.08605511     1.03635988
Ti      0.07355098     6.73128798     1.21458699    -1.37778939    -0.36308078     0.27447076
Ti     -0.03831100     2.91209601     1.04770200    -0.36947975     0.51998267    -0.45150259
Ti      5.62460520     3.02578524     3.59350882     0.10825017    -2.01017559     0.24189719
Ti      5.73851023    -0.99742577     3.57236084    -0.04181849     1.73978671     0.11772443
Ti      2.03419122     2.80343121     3.71277183    -0.08723525     0.03800658     0.21181373
Ti      1.92403720    -1.03918278     3.62859380     0.01356257    -0.17596277     0.73830386
O       3.69910403     4.67598100     0.93141202    -0.12544186     0.06097836    -0.91648035
O       3.82243699     0.93295902     0.97842302    -0.15234615    -0.25907139    -1.07635469
O      -0.06898498     4.84230400     0.71245001     0.70700144     0.13509095     1.00527368
O      -0.09422498     1.09586301     0.65264600     0.10786836    -1.89347497     1.32960201
O       5.81026122     4.79293023     4.10325082     0.43749265     0.48230905    -0.43796882
O       5.75489922     1.03493523     3.94841081     0.51798492     0.11874644     0.09238208
O       1.88847025     4.66928225     4.17341179    -0.31118484     0.50408373    -0.75982349
O       1.89263022     0.85741124     4.00233381    -0.36000934     0.42708353     1.00545520
O       3.83835522     2.83923825     3.45436283    -1.34829625     0.08884399    -1.19438276
O       3.81422421    -1.09792378     3.18261782    -0.51260668    -0.08264711     1.39907556
O       0.00962521    -1.07162478     3.17849283     1.00648776     0.26036851     0.35110149
O       5.70552302     6.65236500     1.71503002     0.48398001     0.17177264    -1.73839368
O       5.66526199     2.93037601     1.67497898     0.91076375     0.14739086    -0.58007168
O       1.95314597     6.75140999     1.69752399    -1.62522885    -0.08213109    -0.40649516
O       1.77357301     2.83656098     1.75291102     0.03920677     0.06634117     0.18945309
