# total energy = -19907.55200306 eV

CRYSTAL
PRIMVEC
        6.99244184     0.00000000     0.00000000
        0.00002290     3.18945962     0.00000000
        0.00000000     0.00000000    10.64194996
PRIMCOORD
24 1
Ti      2.53443731     1.89007083     3.94808753    -0.85807694     0.68466780    -0.25692503
Ti      4.45802712     1.29938884     6.69386258     0.85807694    -0.68466780     0.25692503
Ti      6.03053854     1.29938993     1.37284496    -0.85679448    -0.68505732     0.25996459
Ti      0.96192589     1.89006985     9.26910526     0.85679448     0.68505732    -0.25996459
Ti      2.53442601     0.29534107     1.37288765    -0.85881151     0.68481641     0.25810132
Ti      4.45803842     2.89411865     9.26906256     0.85881151    -0.68481641    -0.25810132
Ti      0.96191459     0.29533988     6.69381988     0.85750796     0.68531495     0.25873638
Ti      6.03054984     2.89411984     3.94813023    -0.85750796    -0.68531495    -0.25873638
O       2.21315997     1.12306294     5.43050564     6.14723200    -1.24866623     2.85141128
O       4.77930446     2.06639668     5.21144447    -6.14723200     1.24866623    -2.85141128
O       1.28311779     1.12307581     0.10956483    -6.14758553    -1.24850142     2.84986322
O       5.70934669     2.06638386    10.53238497     6.14758553     1.24850142    -2.84986322
O       4.77929321     0.47166687     0.10953031    -6.14803496     1.24825614     2.84946496
O       2.21317122     2.71779280    10.53241949     6.14803496    -1.24825614    -2.84946496
O       5.70933544     0.47165400     5.43054017     6.14911971     1.24905935     2.85104002
O       1.28312894     2.71780567     5.21140994    -6.14911971    -1.24905935    -2.85104002
O       0.25406541     1.94001013     2.87465620     1.76194834    -0.81165026     0.67917669
O       6.73839902     1.24944949     7.76729391    -1.76194834     0.81165026    -0.67917669
O       3.75029522     1.24941978     2.44635269     1.76251167     0.81184027    -0.68276133
O       3.24216921     1.94003989     8.19559727    -1.76251167    -0.81184027     0.68276133
O       0.25405416     0.34528032     2.44631873     1.76122252    -0.81119029    -0.68210029
O       6.73841027     2.84417935     8.19563123    -1.76122252     0.81119029     0.68210029
O       3.24215796     0.34531003     7.76732782    -1.76239571    -0.81148751    -0.67918569
O       3.75030647     2.84414964     2.87462224     1.76239571     0.81148751     0.67918569
