# total energy = -19931.26742062 eV

CRYSTAL
PRIMVEC
        6.11184448     0.00000000     0.00000000
        1.28812112     6.37603534     0.00000000
        0.00000000     0.00000000    10.99450917
PRIMCOORD
24 1
Ti      2.97858895     3.77843264     4.07888463    -0.07990837    -1.78982682     0.80218577
Ti      4.42137636     2.59760285     6.91562498     0.07990837     1.78982682    -0.80218577
Ti      5.79585302     2.59760514     1.41832625    -0.04870443    -0.23987759    -0.25019363
Ti      1.60411231     3.77843060     9.57618348     0.04870443     0.23987759     0.25019363
Ti      2.33452853     0.59041521     1.41837033    -0.07990837    -1.78982682    -0.80218577
Ti      5.06543679     5.78562047     9.57613940     0.07990837     1.78982682     0.80218577
Ti      0.96005179     0.59041274     6.91558090     0.04870443     0.23987759    -0.25019363
Ti      6.43991353     5.78562294     4.07892871    -0.04870443    -0.23987759     0.25019363
O       2.38800660     2.24511046     5.61041404     1.71731783     1.89431315    -0.52665597
O       5.01195870     4.13092503     5.38409557    -1.71731783    -1.89431315     0.52665597
O       1.57509510     2.24513614     0.11319465    -0.85072462     0.33329685     0.76413317
O       5.82487027     4.13089941    10.88131465     0.85072462    -0.33329685    -0.76413317
O       4.36789827     0.94290741     0.11315896    -1.71731783    -1.89431315    -0.52665597
O       3.03206703     5.43312808    10.88135034     1.71731783     1.89431315     0.52665597
O       5.18080984     0.94288179     5.61044973     0.85072462    -0.33329685     0.76413317
O       2.21915541     5.43315377     5.38405987    -0.85072462     0.33329685    -0.76413317
O       1.00556567     3.87826606     2.96989133     0.44299610     1.17123434     1.35394471
O       6.39439964     2.49776944     8.02461828    -0.44299610    -1.17123434    -1.35394471
O       3.78259249     2.49770988     2.52739845     0.68774258     1.35847114     0.52614972
O       3.61737281     3.87832561     8.46711097    -0.68774258    -1.35847114    -0.52614972
O       0.36150524     0.69024844     2.52736332     0.44299610     1.17123434    -1.35394471
O       7.03846007     5.68578712     8.46714610    -0.44299610    -1.17123434     1.35394471
O       2.97331237     0.69030793     8.02465335    -0.68774258    -1.35847114     0.52614972
O       4.42665293     5.68572756     2.96985619     0.68774258     1.35847114    -0.52614972
