# total energy = -4981.38841751 eV

CRYSTAL
PRIMVEC
        3.75895156     0.00000000     0.00000000
        0.00000000     2.52416292     0.00000000
        0.00000000    -0.00008090     5.00826013
PRIMCOORD
6 1
Ti      1.87947578     1.26204096     2.50412997     0.00000000     0.00000000     0.00000000
Ti      0.00000000     0.00000000     0.00000000     0.00000000     0.00000000     0.00000000
O       1.87947578     0.49190640     0.97603612     0.00000000    -2.65699185    -2.59285643
O       1.87947578     2.03217557     4.03222382     0.00000000     2.65699185     2.59285643
O       0.00000000     0.77010248     3.48016705     0.00000000     2.65627502    -2.59753532
O       0.00000000     1.75397945     1.52809285     0.00000000    -2.65627502     2.59753532
