# total energy = -19070.48076219 eV

CRYSTAL
PRIMVEC
        5.93400000     0.00000000     0.00000000
        0.00000000     9.29699974     0.00000000
        0.00000000     0.00000000     4.64899994
PRIMCOORD
22 1
Ti      4.29534301     6.93736198     2.28433500    -2.20449501     0.26649314     0.66979602
Ti      4.52013200     2.44830300     2.14433798    -3.01660575    -1.32519694    -0.10571917
Ti      1.38208800     7.01648800     2.66253401     1.00610595    -2.79488453    -1.10704981
Ti      1.66831801     2.17599802     1.75960199     0.96434711     3.01564750     0.01383203
Ti      3.04618201     4.63078000     4.53669398    -1.73574545    -1.75963615    -0.19458244
Ti      2.96718701     0.16314000     4.63098199     1.14304450     0.17007982     0.70617174
Ti      5.79930799     4.83231102     0.05890103     3.55343044    -3.87094817    -2.46502319
Ti      5.92594000     8.85770701     0.16609101    -0.46146202     1.71420242     2.16665453
O       4.53704101     5.40073999     1.03199899    -3.17964306     1.79271211     2.77137616
O       4.82738200     0.93514097     1.08672602    -0.65257913    -1.24961831    -0.93700521
O       1.19859901     1.00228097     0.57264398     1.15363410    -1.35179193    -0.80896963
O       4.55681600     8.49585597     3.81223302    -1.87934392    -0.59970926    -1.43111795
O       4.35836701     3.94293901     3.31629498    -0.35585804     0.67040666     2.81263312
O       1.42887298     8.39518799     3.66403000     1.11835727     2.64322821     1.87289611
O       1.35855300     3.57582901     4.62327701     0.23928443     2.48746070    -2.17356642
O       2.96767100     6.21426402     3.62730700    -0.04862266     0.65876213    -1.45107254
O       2.99831698     1.59880100     3.10948701    -0.97853214    -0.95451572     0.51724727
O       5.73993298     6.04314202     3.39582598     1.19227651     1.46600937    -1.03265646
O       3.08044401     8.30416802     1.65119998    -0.78046637    -1.16659427    -1.44548348
O       3.17574000     2.90513997     0.90505698     2.00276541     0.01576421     1.76640432
O       5.88308199     7.71743100     1.58756498     0.76467953    -0.06958282    -1.16224113
O       0.06140599     3.25107097     1.70146599     2.15542806     0.24171207     1.01747614
