# total energy = -19956.28294359 eV

CRYSTAL
PRIMVEC
        5.94952728     0.00000000     0.00000000
        0.00002767     5.18080617     0.00000000
        0.00000000     0.00000000     9.77809539
PRIMCOORD
24 1
Ti      2.15643387     3.07014083     3.62760377     0.09516685     0.09553863    -0.33141044
Ti      3.79312114     2.11066512     6.15049200    -0.09516685    -0.09553863     0.33141044
Ti      5.13109443     2.11066679     1.26140505     0.09571964    -0.09703475     0.33315827
Ti      0.81846058     3.07013932     8.51669084    -0.09571964     0.09703475    -0.33315827
Ti      2.15642026     0.47973786     1.26144425     0.09531726     0.08729027     0.33180381
Ti      3.79313475     4.70106826     8.51665164    -0.09531726    -0.08729027    -0.33180381
Ti      0.81844697     0.47973596     6.15045280    -0.09526712     0.08775178     0.33162692
Ti      5.13110804     4.70107010     3.62764298     0.09526712    -0.08775178    -0.33162692
O       1.88307271     1.82424985     4.98968738     0.77210205     0.33465543     0.07215084
O       4.06648230     3.35655610     4.78840840    -0.77210205    -0.33465543    -0.07215084
O       1.09174519     1.82427078     0.10067099    -0.77369742     0.33530180     0.07156103
O       4.85780987     3.35653522     9.67742452     0.77369742    -0.33530180    -0.07156103
O       4.06646869     0.76615296     0.10063924    -0.77156289    -0.33403245     0.07214441
O       1.88308632     4.41465299     9.67745626     0.77156289     0.33403245    -0.07214441
O       4.85779621     0.76613208     4.98971912     0.77275974    -0.33515936     0.07157388
O       1.09175869     4.41467392     4.78837665    -0.77275974     0.33515936    -0.07157388
O       0.21617681     3.15126002     2.64130760    -0.15252869    -0.10899836     0.24017866
O       5.73337819     2.02954593     7.13678817     0.15252869     0.10899836    -0.24017866
O       3.19094640     2.02949778     2.24777139    -0.15061554     0.10828462    -0.24497171
O       2.75860860     3.15130817     7.53032422     0.15061554    -0.10828462     0.24497171
O       0.21616314     0.56085688     2.24774015    -0.15201473    -0.10777683    -0.24468169
O       5.73339186     4.61994907     7.53035547     0.15201473     0.10777683     0.24468169
O       2.75859493     0.56090503     7.13681936     0.15170157    -0.10945447    -0.24122613
O       3.19096007     4.61990092     2.64127636    -0.15170157     0.10945447     0.24122613
