# total energy = -4989.17619907 eV

CRYSTAL
PRIMVEC
        3.59397506     0.00000000     0.00000000
       -0.00000800     3.59397506     0.00000000
       -1.79701572    -1.79701972     4.58671149
PRIMCOORD
6 1
Ti     -0.00015827     2.69561742     1.14667775     0.00243484    -0.00257830    -0.00090426
Ti      1.79710951    -0.89866218     3.44003344    -0.00243484     0.00257830     0.00090426
O       0.00003590     0.89848766     0.74713777     0.00037795     0.00152209     1.13420273
O       1.79691524     0.89846748     3.83957347    -0.00037795    -0.00152209    -1.13420273
O      -0.00002030    -0.89847206     3.04049347     0.00148301     0.00029825     1.13334629
O       1.79697139     2.69542715     1.54621777    -0.00148301    -0.00029825    -1.13334629
