# total energy = -4976.19389982 eV

CRYSTAL
PRIMVEC
        4.90606119     0.00000000     0.00000000
       -0.00001092     4.90606119     0.00000000
       -2.45306907    -2.45307453     6.26122521
PRIMCOORD
6 1
Ti     -0.00021605     3.67973171     1.56530613    -0.00237082     0.00237082    -0.00000000
Ti      2.45319711    -1.22674519     4.69591867     0.00237082    -0.00237082    -0.00000000
O       0.00004901     1.22650696     1.01990235    -0.00013884    -0.00247417    -1.31544474
O       2.45293192     1.22647942     5.24132251     0.00013884     0.00247417     1.31544474
O      -0.00002771    -1.22648567     4.15051489    -0.00247417    -0.00013884    -1.31544474
O       2.45300857     3.67947198     2.11070998     0.00247417     0.00013884     1.31544474
