# total energy = -19941.01536245 eV

CRYSTAL
PRIMVEC
        6.19537593     0.00000000     0.00000000
        0.00003083     5.96577680     0.00000000
        0.00000000     0.00000000    10.58681007
PRIMCOORD
24 1
Ti      2.24554410     3.53531375     3.92763112     0.16259302    -0.69269761     0.57285357
Ti      3.94986266     2.43046293     6.65917931    -0.16259302     0.69269761    -0.57285357
Ti      5.34312409     2.43046498     1.36573181     0.16303525     0.69296758    -0.57292761
Ti      0.85228273     3.53531200     9.22107880    -0.16303525    -0.69296758     0.57292761
Ti      2.24552874     0.55242547     1.36577428     0.16259302    -0.69269761    -0.57285357
Ti      3.94987808     5.41335139     9.22103633    -0.16259302     0.69269761     0.57285357
Ti      0.85226731     0.55242330     6.65913690    -0.16303525    -0.69296758    -0.57292761
Ti      5.34313945     5.41335362     3.92767359     0.16303525     0.69296758     0.57292761
O       1.96088647     2.10065135     5.40236828     1.08943543     1.15850840    -0.29707822
O       4.23452035     3.86512532     5.18444215    -1.08943543    -1.15850840     0.29707822
O       1.13685951     2.10067548     0.10899715    -1.08907959     1.15865187    -0.29777422
O       5.05854737     3.86510126    10.47781304     1.08907959    -1.15865187     0.29777422
O       4.23450493     0.88223686     0.10896282    -1.08943543    -1.15850840    -0.29707822
O       1.96090189     5.08353982    10.47784736     1.08943543     1.15850840     0.29707822
O       5.05853196     0.88221280     5.40240266     1.08907959    -1.15865187    -0.29777422
O       1.13687475     5.08356394     5.18440782    -1.08907959     1.15865187     0.29777422
O       0.22511120     3.62872365     2.85976159    -0.09951407    -0.13300502     0.15847926
O       5.97029563     2.33705309     7.72704884     0.09951407     0.13300502    -0.15847926
O       3.32280465     2.33699756     2.43367729    -0.09957063     0.13307624    -0.15874151
O       2.87260212     3.62877918     8.15313302     0.09957063    -0.13307624     0.15874151
O       0.22509578     0.64583519     2.43364345    -0.09951407    -0.13300502    -0.15847926
O       5.97031098     5.31994155     8.15316680     0.09951407     0.13300502     0.15847926
O       2.87258676     0.64589072     7.72708262     0.09957063    -0.13307624    -0.15874151
O       3.32282006     5.31988596     2.85972780    -0.09957063     0.13307624     0.15874151
