# total energy = -4986.93463202 eV

CRYSTAL
PRIMVEC
        3.69380750     0.00000000     0.00000000
       -0.00000746     3.34201669     0.00000000
       -1.84692981    -1.67104189     4.50089060
PRIMCOORD
6 1
Ti     -0.00016147     2.50663809     1.12522243     0.00086312    -0.00456782     4.07255718
Ti      1.84703141    -0.83566319     3.37566763    -0.00086312     0.00456782    -4.07255718
O       0.00003753     0.83549788     0.73315822     0.00130843     0.00525637     0.68358356
O       1.84683226     0.83547692     3.76773194    -0.00130843    -0.00525637    -0.68358356
O      -0.00001894    -0.83548619     2.98360343     0.00097882    -0.00001208     1.97871530
O       1.84688873     2.50646094     1.51728673    -0.00097882     0.00001208    -1.97871530
