# total energy = -19520.01261147 eV

CRYSTAL
PRIMVEC
        5.17575250     0.00001323     0.00000000
        0.00001429     5.50856584     0.00000000
        0.00000000     0.00000000     9.26345890
PRIMCOORD
23 1
Ti      1.84095895     3.35694060     3.41289161     0.00952620     0.01708036     0.01336357
Ti      3.36659606     2.16722828     5.77108850     0.00493678    -0.03527221    -0.01746885
Ti      4.58387259     1.94521795     1.42523288    -0.00017072     0.01566831     0.00322854
Ti      0.84258800     3.32157860     7.93223904     0.01872381     0.02081026    -0.00015632
Ti      2.03887071     0.47840743     1.25987579    -0.02852923    -0.01896395     0.01877317
Ti      3.16064128     5.16991499     7.91197296    -0.01254056     0.01490032    -0.01154991
Ti      0.60480256     0.69411507     5.67230542    -0.00888702    -0.02526110     0.01281207
Ti      4.57743816     4.82727278     3.57465422    -0.00496686     0.01188904     0.00576981
O       1.52645428     1.95104546     4.67121165    -0.00566209    -0.01363174    -0.01042763
O       3.57877949     3.51117196     4.50065528     0.00555101    -0.00792260     0.01542097
O       0.72461791     2.13276674     0.08853342    -0.00748963     0.04137601    -0.01276527
O       3.55169542     0.84068083     0.09539033     0.02051047     0.00322468    -0.01815997
O       1.68216391     4.72167569     9.13476416    -0.01191938    -0.01799362    -0.00028539
O       4.05361951     0.76140973     4.70393594     0.00591457     0.01643218     0.01020934
O       1.04565766     4.63683738     4.62131976    -0.01508107     0.00386694    -0.02131162
O       0.18009114     3.37452733     2.38787580     0.01360963    -0.02695108     0.01812654
O       4.93513122     2.15626473     6.83431594     0.00285984     0.01693072    -0.00950614
O       2.78725532     2.12453575     2.09307320    -0.00090734    -0.01435036     0.01362608
O       2.48991099     3.41719978     7.14309309    -0.00515481    -0.00044429     0.01367982
O       0.28398088     0.56027051     2.21170038    -0.00188436    -0.01726882    -0.00542786
O       4.89912489     4.79321843     7.32015755     0.02670529    -0.00365174    -0.00384072
O       2.31227114     0.74592444     6.77250414     0.00093562    -0.00285213    -0.01526465
O       2.81666583     4.84585067     2.45463189    -0.00608015     0.02238403     0.00115443
