# total energy = -4975.48619005 eV

CRYSTAL
PRIMVEC
        4.80147462     0.00000000     0.00000000
       -0.00000727     2.88088477     0.00000000
       -2.40076435    -1.44049494     5.22901296
PRIMCOORD
6 1
Ti     -0.00020581     2.16076598     1.30725289    -0.00970900    -0.01242075    18.11384938
Ti      2.40090865    -0.72037625     3.92175942     0.00970900     0.01242075   -18.11384938
O       0.00005085     0.72021194     0.85176337     0.00789689     0.01248888   -10.49787158
O       2.40065188     0.72017773     4.37724900    -0.00789689    -0.01248888    10.49787158
O      -0.00001978    -0.72022153     3.46626985    -0.00233122    -0.00019643    -1.70205447
O       2.40072245     2.16061114     1.76274246     0.00233122     0.00019643     1.70205447
