# total energy = -19073.11087111 eV

CRYSTAL
PRIMVEC
        5.17600016     0.00000000     0.00000000
        0.00000000     5.50899976     0.00000000
        0.00000000     0.00000000     9.26300011
PRIMCOORD
22 1
Ti      1.45202702     3.25304301     3.56609300     0.67376658    -1.24846131     0.22430107
Ti      4.11001799     2.91593900     5.87774502     0.78689644    -1.47614286     1.64179756
Ti      4.12311000     2.11796098     1.45357000    -0.49209082    -1.26445821    -0.19224043
Ti      1.26925698     3.11823902     8.11693199    -0.67105997    -1.68588197    -0.22830787
Ti      1.55760799     0.41961602     1.36551999     0.56918254     1.63720711    -0.34714662
Ti      3.33550200     5.22808602     8.02260900    -0.41443679     1.29534436     0.87306185
Ti      1.60052199     0.22448498     5.79673201     1.42069032     1.59517213    -1.28151877
Ti      4.01520102     4.82368702     3.44443599    -0.01280873     0.23743684     1.12287084
O       3.23736301     3.07049199     4.40310101    -0.89552353     0.54510261    -1.28830442
O       0.61206599     1.89657597     0.13362800    -0.28785645    -0.45570609    -0.28661974
O       4.68615999     3.89681100     7.49164102     1.23129559     0.37976185     0.59286447
O       3.30548400     0.78063201     0.38122300    -0.71013896    -0.43247565    -1.03769968
O       2.11567001     4.18275399     0.03051998     0.26208344     0.91615639     0.29657712
O       3.32492200     0.20820500     5.00362898    -0.77920961     0.27249590    -0.58955057
O       0.60609798     4.55714901     4.57658902    -1.41693059     1.50546091     1.99885244
O       5.13843900     3.34454902     2.40973302    -1.07878926     0.79105443    -0.00035301
O       0.50951900     2.07580302     5.40396803     0.41640805    -0.97054501     0.16523689
O       2.29733302     1.95554003     2.35947499     0.41728814    -0.67250751    -1.02970200
O       2.30553400     4.23696597     6.77798797    -1.11591678    -1.21525164    -0.17615149
O       4.87512601     0.62218200     2.27248100     0.83740321    -0.61964740     0.88092275
O       2.52561601     1.39612802     7.21101499     0.02282652     0.50243694    -0.00283696
O       2.14257402     4.79326800     2.76397602     1.23692039     0.36344819    -1.33605317
