# total energy = -19961.06069548 eV

CRYSTAL
PRIMVEC
        7.60600008     0.00000000     0.00000000
        0.00000000     7.60600008     0.00000000
       -1.89786986    -1.89786986     4.85670466
PRIMCOORD
24 1
Ti      3.76890600     6.53407002     1.26068299    -0.35890017     1.12545378    -0.62655828
Ti      3.80076400     2.83629603     1.25104799    -1.01953560    -1.21666729    -0.63568749
Ti      0.03250598     6.72969399     1.14948099     0.05004654    -0.32996059     1.70276255
Ti     -0.02160700     2.91241902     1.18804298     0.92050310     0.43974956    -0.26247759
Ti      5.73154023     2.93586120     3.59239279     0.51883827    -0.38001536     1.22957038
Ti      5.71916124    -0.94844978     3.58761882     1.37858823     0.36118793     0.49794599
Ti      1.89983422     2.78745921     3.62764483    -0.89262179    -0.08034006    -0.25130717
Ti      1.91850021    -1.05644179     3.62846781    -1.40443271     0.25309949     1.03070267
O       3.56621502     4.65376699     0.83145499     0.98315088     0.84410788    -0.71939519
O       3.65993401     0.88267702     0.97595202     0.85357957    -0.00531036    -0.56893340
O       0.07373900     4.89848903     0.72192001    -0.50993016    -1.30282936     0.53208203
O       0.04592999     1.01244298     0.67138702    -0.52382081     0.35403127     1.03535792
O      -1.59952280     4.79887522     4.14442081    -0.59559858     0.37961041    -2.09492998
O       5.72003120     1.07315622     4.13469480    -0.36539478    -0.61038269    -1.61968144
O       1.65683921     4.64919124     4.11063480     0.96637931     0.25988978     0.46131573
O       1.86035220     0.80908624     4.04002483     0.71155949     1.21943612     0.69248036
O       3.76865422     2.98156624     3.24390380     0.10943159    -0.34404458     0.14905410
O       3.80560624    -1.14760178     3.22315179     0.57995521    -0.13851541     0.45928147
O       0.02762321     2.77791724     3.12508080    -0.71953480    -0.24185682     0.69134419
O       0.05265123    -0.97143476     3.16099082    -1.08162365     0.34131767     0.69936757
O       5.75952301     6.63244301     1.68210599    -1.18461848     0.14443100    -1.17329894
O       5.67624200     3.06681701     1.67808599    -0.04497427    -0.28859538    -0.90446455
O       1.87918398     6.66220299     1.75289398     1.02432042    -0.11578556    -1.00814869
O       1.84472401     2.97924802     1.59514402     0.60463318    -0.66801193     0.68361699
