# total energy = -19941.87439139 eV

CRYSTAL
PRIMVEC
        6.63660859     0.00000000     0.00000000
        0.00002804     5.22074327     0.00000000
        0.00000000     0.00000000    10.56650325
PRIMCOORD
24 1
Ti      2.40546805     3.09380767     3.92009734     0.39725898    -0.30262615     0.48855323
Ti      4.23116864     2.12693578     6.64640596    -0.39725898     0.30262615    -0.48855323
Ti      5.72365772     2.12693759     1.36311209     0.39727569     0.30263618    -0.48851878
Ti      0.91297897     3.09380609     9.20339133    -0.39727569    -0.30263618     0.48851878
Ti      2.40545415     0.48343615     1.36315446     0.39740451    -0.31858782    -0.48893684
Ti      4.23118254     4.73730747     9.20334896    -0.39740451     0.31858782     0.48893684
Ti      0.91296506     0.48343416     6.64636360    -0.39761354    -0.31843150    -0.48880957
Ti      5.72367162     4.73730947     3.92013971     0.39761354     0.31843150     0.48880957
O       2.10053843     1.83831249     5.39200573     0.89021497     0.94953677    -0.65325816
O       4.53609832     3.38243096     5.17449758    -0.89021497    -0.94953677     0.65325816
O       1.21782447     1.83833355     0.10878809    -0.89021189     0.94957148    -0.65372533
O       5.41881233     3.38240996    10.45771492     0.89021189    -0.94957148     0.65372533
O       4.53608441     0.77205926     0.10875381    -0.89011419    -0.94947687    -0.65325379
O       2.10055233     4.44868418    10.45774920     0.89011419     0.94947687     0.65325379
O       5.41879843     0.77203826     5.39204001     0.88999335    -0.94947301    -0.65363586
O       1.21783826     4.44870525     5.17446329    -0.88999335     0.94947301     0.65363586
O       0.24114041     3.17555200     2.85427614    -1.07728388     0.17961425     0.20703302
O       6.39549634     2.04519145     7.71222717     1.07728388    -0.17961425    -0.20703302
O       3.55945185     2.04514276     2.42900912    -1.07709568    -0.17930469    -0.20719551
O       3.07718489     3.17560075     8.13749401     1.07709568     0.17930469     0.20719551
O       0.24112651     0.56518036     2.42897537    -1.07714864     0.17908383    -0.20732792
O       6.39551024     4.65556314     8.13752776     1.07714864    -0.17908383     0.20732792
O       3.07717099     0.56522906     7.71226086     1.07688562     0.17880178    -0.20732407
O       3.55946576     4.65551439     2.85424239    -1.07688562    -0.17880178     0.20732407
