# total energy = -19919.31710323 eV

CRYSTAL
PRIMVEC
        4.50290468     0.00000000     0.00000000
        0.00002468     4.79245228     0.00000000
        0.00000000     0.00000000     8.05920925
PRIMCOORD
24 1
Ti      1.63210100     2.84000279     2.98990921    -0.16109407     1.56316677    -2.18717811
Ti      2.87082836     1.95244954     5.06930027     0.16109407    -1.56316677     2.18717811
Ti      3.88347450     1.95245118     1.03966333    -0.15649771    -1.56251602     2.19341381
Ti      0.61945485     2.84000132     7.01954624     0.15649771     1.56251602    -2.19341381
Ti      1.63208875     0.44377674     1.03969565    -0.16182709     1.56241883     2.19266459
Ti      2.87084061     4.34867572     7.01951392     0.16182709    -1.56241883    -2.19266459
Ti      0.61944261     0.44377495     5.06926795     0.15598914     1.56200771     2.18785868
Ti      3.88348675     4.34867751     2.98994153    -0.15598914    -1.56200771    -2.18785868
O       1.42520645     1.68750396     4.11255287    -3.82880134    -3.26248352    -0.58909986
O       3.07772291     3.10494841     3.94665660     3.82880134     3.26248352     0.58909986
O       0.82628960     1.68752326     0.08297408     3.82901629    -3.26302243    -0.58851905
O       3.67663981     3.10492911     7.97623517    -3.82901629     3.26302243     0.58851905
O       3.07771066     0.70872222     0.08294793     3.82948603     3.26197033    -0.59003137
O       1.42521870     4.08373010     7.97626132    -3.82948603    -3.26197033     0.59003137
O       3.67662756     0.70870292     4.11257902    -3.82801690     3.26325228    -0.58766390
O       0.82630175     4.08374945     3.94663045     3.82801690    -3.26325228     0.58766390
O       0.16361594     2.91504115     2.17699353    -1.38030521     0.80445605    -0.94330185
O       4.33931342     1.87741117     5.88221595     1.38030521    -0.80445605     0.94330185
O       2.41507188     1.87736650     1.85263683    -1.38030033    -0.80464657     0.94562767
O       2.08785747     2.91508582     6.20657251     1.38030033     0.80464657    -0.94562767
O       0.16360369     0.51881497     1.85261110    -1.38017152     0.80394158     0.94499646
O       4.33932567     4.27363735     6.20659824     1.38017152    -0.80394158    -0.94499646
O       2.08784523     0.51885964     5.88224164     1.38050653     0.80502375     0.94406547
O       2.41508413     4.27359269     2.17696779    -1.38050653    -0.80502375    -0.94406547
