# total energy = -4979.88451753 eV

CRYSTAL
PRIMVEC
        4.49546271     0.00000000     0.00000000
        0.00000000     2.67175458     0.00000000
        0.00000000    -0.00010665     6.09120448
PRIMCOORD
6 1
Ti      2.24773135     1.33582380     3.04560197     0.00000000     0.00000000     0.00000000
Ti      0.00000000     0.00000000     0.00000000     0.00000000     0.00000000     0.00000000
O       2.24773135     0.52066477     1.18708595     0.00000000    -0.10437937     2.42951650
O       2.24773135     2.15098283     4.90411799     0.00000000     0.10437937    -2.42951650
O       0.00000000     0.81511684     4.23268925     0.00000000     0.10433720     2.43012353
O       0.00000000     1.85653076     1.85851468     0.00000000    -0.10433720    -2.43012353
