# total energy = -19960.37297887 eV

CRYSTAL
PRIMVEC
        5.93400000     0.00000000     0.00000000
        0.00000000     9.29699974     0.00000000
        0.00000000     0.00000000     4.64899994
PRIMCOORD
24 1
Ti      4.44079098     6.85674701     2.24886499    -1.84743524     0.62836576     1.62185710
Ti      4.50364702     2.45778300     2.40698098     1.04574055    -0.66363874    -1.31014287
Ti      1.41339402     7.00586397     2.19300398     1.78466610    -0.27394652     0.74952030
Ti      1.52846700     2.23613801     2.38000500    -1.27958812     0.31212073    -0.05523940
Ti      2.99263800     4.60401099     0.01989400    -1.60298777     0.77422655    -0.32534314
Ti      2.92278698     9.26507099     4.60031998     2.04155925    -0.45275421     0.46876267
Ti      0.00082298     4.73275198     4.62501901     1.14138922    -0.26978544     0.41169316
Ti      0.01218801     9.22254302     0.05134501    -2.33688887     0.68247593    -0.94907886
O       4.41087500     5.64881199     0.84701201     0.47432783    -0.24369079    -0.09101092
O       4.46304298     0.91574001     0.86708598    -0.38638861     0.15642829     0.33381853
O       1.47170400     5.64151400     0.83542901    -0.10717468     0.30544768     0.41674821
O       1.40169100     0.89495002     0.87585301     1.55115611     0.65779410     0.89820185
O       4.54563602     8.36281801     3.73855398    -1.10471422     0.17002069     0.17941833
O       4.44356498     3.82563999     3.85799902     0.34714893    -1.72015196    -1.31622893
O       1.53530402     8.39326898     3.63762099    -0.30064460     0.01166896     0.86393263
O       1.43267702     3.66006599     3.92323700     0.51160652    -0.05689571    -1.04242254
O       2.99984699     5.98199098     3.14446901    -0.51009780     0.09702601     0.29150047
O       2.93895498     1.39521900     3.29474598     0.11302059     0.90569688    -1.04168720
O       5.88755999     6.04017201     3.25958501     0.75607687     0.38282146    -0.96287078
O       5.90206998     1.40476202     3.23162398     0.66720357     0.94727729    -0.64520469
O       2.98635699     7.89865399     1.52460501    -0.70223435     0.41124785    -1.15498831
O       3.06660301     3.47310502     1.56162699    -0.77548742    -1.74729073     0.54296165
O       5.87159699     7.89057002     1.38253499     0.87037659    -0.63342518     0.56103086
O       5.93131998     3.26226598     1.39469702    -0.35063021    -0.38103917     1.55477211
