# total energy = -19960.34024669 eV

CRYSTAL
PRIMVEC
        5.02204942     0.00000000     0.00000000
        0.26710957     5.33830082     0.00000000
        0.00000000     0.00000000     8.99117477
PRIMCOORD
24 1
Ti      1.97854018     3.16347199     3.33566171     0.36838831     0.03219588    -0.04052600
Ti      3.31061860     2.17482863     5.65551316    -0.36838831    -0.03219588     0.04052600
Ti      4.44001389     2.17483045     1.15988980    -0.45005532    -0.46328339     0.52986651
Ti      0.84914495     3.16347037     7.83128518     0.45005532     0.46328339    -0.52986651
Ti      1.84498550     0.49432178     1.15992583     0.36905320     0.02542771     0.03949524
Ti      3.44417327     4.84397899     7.83124914    -0.36905320    -0.02542771    -0.03949524
Ti      0.71559026     0.49431980     5.65547708     0.45048547     0.45517516     0.53142511
Ti      4.57356857     4.84398096     3.33569779    -0.45048547    -0.45517516    -0.53142511
O       1.68356409     1.87970639     4.58812766    -0.50201862    -0.36367548    -0.18377481
O       3.60559469     3.45859423     4.40304721     0.50201862     0.36367548     0.18377481
O       1.01559858     1.87972793     0.09256918     0.59391991    -0.60657025     0.05540807
O       4.27356024     3.45857274     8.89860543    -0.59391991     0.60657025    -0.05540807
O       3.47204001     0.78944387     0.09254002     0.50222482     0.36342968    -0.18326419
O       1.81711877     4.54885674     8.89863459    -0.50222482    -0.36342968     0.18326419
O       4.14000556     0.78942238     4.58815687    -0.59443593     0.60723077     0.05572303
O       1.14915316     4.54887834     4.40301800     0.59443593    -0.60723077    -0.05572303
O       0.34493384     3.24705705     2.42874066    -0.33581834    -0.00847282    -0.32144715
O       4.94422498     2.09124356     6.56243426     0.33581834     0.00847282     0.32144715
O       2.79813315     2.09119383     2.06687537    -0.01089274    -0.27173974    -0.09595361
O       2.49102567     3.24710679     6.92429934     0.01089274     0.27173974     0.09595361
O       0.21137916     0.57790669     2.06684668    -0.33588390    -0.00781950     0.32094167
O       5.07777966     4.76039392     6.92432804     0.33588390     0.00781950    -0.32094167
O       2.35747100     0.57795643     6.56246291     0.01090020     0.27188423    -0.09559031
O       2.93168783     4.76034418     2.42871191    -0.01090020    -0.27188423     0.09559031
