# total energy = -4973.45562655 eV

CRYSTAL
PRIMVEC
        5.33961986     0.00000000     0.00000000
       -0.00000756     2.87518028     0.00000000
       -2.66983958    -1.43765483     5.76039115
PRIMCOORD
6 1
Ti     -0.00022855     2.15648428     1.44009756    -0.00769840    -0.01141493    17.21070432
Ti      2.67000087    -0.71895866     4.32029313     0.00769840     0.01141493   -17.21070432
O       0.00005668     0.71878381     0.93832058     0.00717287     0.01122904   -11.07475201
O       2.66971553     0.71874169     4.82207022    -0.00717287    -0.01122904    11.07475201
O      -0.00002181    -0.71880330     3.81851616    -0.00220421    -0.00003754    -2.16930353
O       2.66979390     2.15632880     1.94187465     0.00220421     0.00003754     2.16930353
