# total energy = -19074.88992633 eV

CRYSTAL
PRIMVEC
        7.60600008     0.00000000     0.00000000
        0.00000000     7.60600008     0.00000000
       -1.89786986    -1.89786986     4.85670466
PRIMCOORD
22 1
Ti      3.83243299     6.62293602     1.24226201     1.25840223    -1.05598357    -1.85259853
Ti      3.84461798     2.71006402     1.17456600     0.38966111     2.04691384     1.39559429
Ti      0.34092599     6.70900501     1.03904302    -2.15474697     0.39509026    -0.32600957
Ti      0.02221502     2.89147101     1.09497499    -0.30859523    -0.43240598     0.21960906
Ti      5.72782524     2.93581220     3.58886683    -0.84984478    -0.01293420    -0.52153073
Ti      5.99702321    -0.86732776     3.61597679    -0.96576250    -0.46493121    -0.30968101
Ti      1.88610223     2.77511821     3.70173383     0.65183968    -0.04394145    -0.36170061
Ti      1.17758221    -1.01063679     4.00184781     2.82088328    -0.28724118    -2.15542343
O       3.94138301     4.64769902     0.78827100    -0.48791200     1.88027415    -0.40692633
O       4.09464502     0.90447600     0.82139099    -1.37233582    -1.40581288     0.57724578
O       0.15456802     4.79190400     0.73563602     0.08678299     0.68053732    -0.08656111
O       7.34180702     0.99578802     0.59657300     1.24828133     0.14610196     1.52479895
O       5.37418323     4.83125621     4.02555580     1.41433018    -0.36382949    -0.95192430
O       5.45764724     1.01897821     3.98921381     1.09450334    -0.35689933    -0.19407414
O       1.86015524     4.76417723     4.03052779    -0.94347385     0.58503134     1.26090340
O       1.96532224     0.85644121     4.09949880    -1.33553175    -0.55486458    -1.06260031
O       3.70404924     2.83367924     3.10857883     0.75973401    -0.03603814     0.81386527
O      -0.03199575     2.82931221     3.25536080     0.70969261     0.08213983    -0.33413915
O       5.71193400     6.62625502     1.73566698    -0.64750506    -0.10464857     0.83632592
O       5.77625200     2.90566598     1.55456602    -0.49132720     0.18705168     1.01353413
O       1.98649599     6.67164901     1.88677302     0.27610161     0.03454664     1.04688340
O       1.93971498     2.88355499     1.51526402    -1.15317748    -0.91815671    -0.12559098
