# total energy = -19516.46402119 eV

CRYSTAL
PRIMVEC
        5.93400000     0.00000000     0.00000000
        0.00000000     9.29699974     0.00000000
        0.00000000     0.00000000     4.64899994
PRIMCOORD
23 1
Ti      4.50584602     6.86677799     2.29153202     0.38637550     1.16899105     0.09925722
Ti      4.43392802     2.30697002     2.34886700     0.62007009    -0.04740345     0.55981987
Ti      1.46859599     7.05415902     2.35869800     0.74380499     0.18115845    -0.31201454
Ti      1.42234299     2.41902500     2.30766801     0.12816800    -0.92754895     0.05099528
Ti      2.96516598     4.63631498     0.08337002    -0.47466130    -0.33105794     0.06139642
Ti      3.02820099     0.02941400     4.60703899    -1.38976662    -1.59888892    -0.73691572
Ti      0.03410002     4.65475099     0.01125798    -0.22201355     0.06690990    -0.08897383
Ti      0.00497300     9.26628302     0.12699598     0.98903870     0.20650774    -1.58160415
O       4.32306100     5.65588503     0.80815801     0.84486044    -0.36335589    -0.38944128
O       4.37263400     0.88874203     0.74212902     0.85827338     0.38042596     1.53569683
O       1.52368302     5.61892400     0.96647102     0.07561926    -1.13293080    -0.98432973
O       1.46449899     0.97226398     1.02739102     0.01114214    -0.67087794    -1.03087597
O       4.48036798     8.26075401     3.48363998    -0.95678832     1.02994908     2.33135766
O       4.50973002     3.68216300     3.60077802    -0.47719152     1.77997101     1.07838303
O       1.45015802     8.33180002     3.68482698     0.43571987     0.97645546     1.13413511
O       1.40208698     3.67552003     3.90701401     0.48591734    -0.02989628    -1.83835461
O       2.98327601     1.59927001     3.27035102    -1.39228965    -1.25683874     0.03044007
O       0.07358300     6.01522898     3.27619599    -0.48479454     0.15439403    -0.79834480
O       5.79478998     1.20336399     3.26939998     0.82532802     1.88555803    -1.28708906
O       2.96112899     7.83650901     1.32036598     0.23078282     0.16871097     0.42642842
O       3.04515699     3.30735898     1.24335301    -0.82948164    -1.44368062     1.82068238
O       0.12215099     7.82846498     1.41634698    -1.47378799     0.42185159    -0.92289345
O       5.80283199     3.29831502     1.35565797     1.06567406    -0.61840376     0.84224511
