# total energy = -19961.01420263 eV

CRYSTAL
PRIMVEC
        5.93400000     0.00000000     0.00000000
        0.00000000     9.29699974     0.00000000
        0.00000000     0.00000000     4.64899994
PRIMCOORD
24 1
Ti      4.44725001     7.01545499     2.25907001     0.88140534     0.26136225    -0.13534472
Ti      4.45836601     2.37438900     2.35323102    -0.27556348    -0.07380971    -1.11190740
Ti      1.49094298     6.87452499     2.33481200    -0.85940363     0.85230507     0.20105443
Ti      1.49840798     2.28193899     2.43460800     0.47350045     0.10156478    -1.15528193
Ti      2.94706801     4.65999699     4.62356700     1.09228705     0.74633522     0.52691256
Ti      2.93546998     0.03293102     0.03842700    -0.11109818    -1.14105549     0.17343331
Ti      0.03392402     4.58377700     4.62357901    -1.20115428     0.99375874     0.46877527
Ti      5.90886498     0.05448599     4.60059499    -0.15724667    -1.46457624     0.63858153
O       4.49898899     5.63203898     0.87929801    -0.47833721    -1.51256050    -0.80484018
O       4.51952202     0.92714198     1.08524300    -0.49587934    -0.69276318    -1.49043795
O       1.45660901     5.60077899     0.81457498     0.38910293    -0.42658860     0.16241330
O       1.44580300     0.79187899     0.95188801     0.41621882     0.89679392     0.52279006
O       4.46777002     8.41402501     3.69100597    -0.02387862     0.70836387     0.77711648
O       4.40727098     3.76937998     3.63713298     0.13484078     0.43915358     1.11936206
O       1.49489499     8.37804403     3.72083702     0.09138167     0.37937387     0.17900310
O       1.50241698     3.77487099     3.72021698     0.01708910    -0.48738749    -0.20815505
O       3.00402600     6.08405398     3.28331200    -0.54361240    -0.16402204    -0.54141745
O       2.92644502     1.45490998     3.36701599     0.16081793     0.40929175    -0.59291075
O       0.03571602     5.96362102     3.11376398     0.32018654     0.26667466     0.46418714
O       5.92782202     1.47228800     3.26802999    -0.09314313     0.05595854     0.36446686
O       3.03928202     7.86604699     1.37019601    -0.71528065    -0.01998776     0.12041998
O       2.87583202     3.14930802     1.38041998     0.38659199     0.30432025     0.15542324
O       5.91740199     7.87257201     1.40121299     0.51365467    -0.11997157     0.15335350
O       5.92010402     3.26754903     1.41292601     0.07752085    -0.31253416     0.01300233
