# total energy = -39040.38158147 eV

CRYSTAL
PRIMVEC
        7.60629642    -0.00000847    -0.00005503
       -0.00000847     7.60629642    -0.00005503
       -3.80314186    -3.80314186     9.70738094
PRIMCOORD
46 1
Ti      1.92292283     4.75395512     6.19936587    -0.00776165    -0.00036201    -0.03740262
Ti      3.80259796     6.62335845     1.17827038     0.01110434     0.01272465    -0.00267986
Ti      1.82042073     0.95076844     5.94899522    -0.04896102    -0.00028616    -0.04203652
Ti      3.80265591     2.88465328     1.17825788     0.01114934    -0.01281567    -0.00264567
Ti     -1.91714653     4.75405875     6.09554069     0.01748788     0.00010233    -0.01572102
Ti     -0.00284020     6.67061317     1.25169768    -0.00988744     0.00467787    -0.00382606
Ti     -1.82496129     0.95090436     6.01944804     0.01808309    -0.00003368    -0.00747394
Ti     -0.00280897     2.83732876     1.25175225    -0.00992189    -0.00460151    -0.00388160
Ti      3.80130198     0.95081307     8.63519656     0.01384694    -0.00000848     0.01377520
Ti      5.68075482     2.87577267     3.63548937    -0.00723200    -0.01354458     0.02733212
Ti      3.82566525    -2.85233820     8.55211764    -0.01777944    -0.00003471    -0.04235148
Ti      5.68075567    -0.97443289     3.63554755    -0.00726054     0.01376826     0.02700508
Ti      0.03522216     0.95072093     8.39195113    -0.01931748     0.00004962     0.00461873
Ti      1.91623474     2.80035167     3.60001206    -0.00240013     0.02961166     0.00420478
Ti     -0.01847547    -2.85248502     8.51911260     0.01615733     0.00013833    -0.02388299
Ti      1.91619483    -0.89909447     3.60003267    -0.00235282    -0.02970345     0.00430043
O       2.00201011     2.91011694     5.60016917    -0.00395590     0.00468327     0.02782809
O       3.84638014     4.75395275     0.72276270     0.01670164     0.00011467     0.00263384
O       2.00199777    -1.00855871     5.60028646    -0.00387105    -0.00500260     0.02785894
O       3.77636391     0.95078093     0.78559472    -0.02341762     0.00007739    -0.00635448
O      -2.04110666     2.82778974     5.67190086    -0.00131615    -0.01352401    -0.00449506
O      -0.04393101     4.75393967     0.84331923    -0.01085932     0.00011956     0.01420047
O      -2.04108982    -0.92617571     5.67193366    -0.00131718     0.01381866    -0.00464778
O       0.02422673     0.95080882     0.87616526     0.01970468     0.00000951    -0.00725951
O       3.79767844     2.86629636     8.96857976    -0.00531627     0.00837769     0.01955556
O       5.74105505     4.75391376     4.11482270     0.01468126    -0.00001903    -0.00287424
O       3.79766299    -0.96468038     8.96860858    -0.00528413    -0.00825119     0.01953525
O       5.65054136     0.95078941     4.01926646    -0.01645301     0.00000771     0.01174763
O       0.01217548     2.82907523     8.86443883     0.00517460    -0.00105852     0.00066360
O       0.01223673    -0.92746740     8.86445543     0.00513629     0.00118528     0.00067132
O       1.96716190     0.95068198     3.99500871     0.03364264    -0.00017818    -0.02551281
O       2.02516798     0.95089372     7.94861466     0.02562002    -0.00001723     0.04954826
O       3.78263649     3.02444462     3.21659691     0.00730425    -0.00883894    -0.02435864
O       1.90164681    -2.85237352     8.13117100    -0.00994529     0.00007559     0.02234752
O       3.78262890    -1.12285534     3.21661157     0.00736236     0.00860317    -0.02431467
O      -2.00827691     0.95089024     7.99452166     0.01572770     0.00001568    -0.01404106
O       0.01905983     2.93437890     3.27501152    -0.01016229    -0.02525956    -0.01344816
O      -1.90202412    -2.85229884     8.11184989     0.00962441     0.00004859    -0.00693555
O       0.01904793    -1.03287066     3.27503777    -0.01021885     0.02513074    -0.01349341
O       3.81071048     4.75397511     6.55529342     0.00814989    -0.00001825    -0.02268794
O       5.69487541     6.67871287     1.66032335    -0.00108243     0.00125907     0.03309808
O       5.69488131     2.82909521     1.66032962    -0.00107086    -0.00105390     0.03313510
O      -0.01180787     4.75392817     6.48599495    -0.02395446     0.00004628     0.01248065
O       1.90577427     6.59698482     1.61582088     0.00445521    -0.01444986    -0.00689390
O       0.00884837     0.95075911     6.39850865    -0.00447321     0.00011544     0.00973960
O       1.90580226     2.91095277     1.61587703     0.00445855     0.01430022    -0.00706077
