# total energy = -19517.68162559 eV

CRYSTAL
PRIMVEC
        7.60600008     0.00000000     0.00000000
        0.00000000     7.60600008     0.00000000
       -1.89786986    -1.89786986     4.85670466
PRIMCOORD
23 1
Ti      3.83928102     6.73648402     1.20033403    -0.09266953     0.53840360    -0.31430437
Ti      3.71809900     2.98017302     1.11817698     0.47736122    -0.92373626     2.10886125
Ti     -0.13140201     6.55771202     1.20636400     1.05135944    -1.17158478    -1.17852522
Ti      0.02727602     2.63173901     1.24303000    -0.58085021     1.94443400     1.67902715
Ti      5.64130524     2.80382021     3.71419182    -1.19016127     1.05430233    -0.47079127
Ti      5.69374623    -0.91712180     3.72064784    -0.21018519    -1.50740800    -1.44553670
Ti      1.95191924     2.89642220     3.68989883     1.44569533     0.88266467    -1.04239580
Ti      1.81893821    -0.89520275     3.51768979     1.26891444    -0.72869461     0.69938968
O       4.07932799     4.85776100     0.79947099    -0.56040325    -1.25011736    -0.13432091
O       3.80597301     1.09308800     0.87688999    -0.17574474    -0.76670453    -1.39292574
O      -0.18972999     4.71112303     0.73719699     0.43739212     1.00474764     1.82730298
O       0.29288199     0.85415400     0.77902199    -0.33929858    -0.38922145     0.55698060
O       5.84623024     4.67563322     3.90913183    -0.36877063     0.24834912     1.26262398
O       5.49776422     0.87765121     4.29379183     0.51512071    -0.34666377    -2.40822184
O       1.98734220     4.71925024     4.02444881    -0.69053017     2.27609409     0.58869003
O       1.85594320     1.03336723     3.84553182    -0.76052925    -1.59663174     1.16746947
O       3.76522425     2.76550322     3.12742479     0.52247381     0.14537434     0.06964838
O       3.91090823    -1.06257379     3.14149382    -0.68195323     0.26467511     1.16137390
O       0.02330920    -1.18569180     3.09276681    -0.27374006     0.88338252     1.31012410
O       5.73526299     6.86138001     1.68219002     0.21313862     0.37306129    -0.72920395
O       5.77789599     2.82770399     1.86973102     1.59159084    -0.73431916    -1.97384306
O       1.97023300     6.58006901     1.65710300    -0.18542340     0.12981093    -0.52467519
O       1.91752298     3.11288798     1.66744000    -1.41278649    -0.33021821    -0.81674747
