# total energy = -19960.25931878 eV

CRYSTAL
PRIMVEC
        7.60600008     0.00000000     0.00000000
        0.00000000     7.60600008     0.00000000
       -1.89786986    -1.89786986     4.85670466
PRIMCOORD
24 1
Ti      3.83342398     6.65575798     1.11454000     0.45895648    -0.71328393     0.24994552
Ti      3.81373901     2.63502102     1.22197701    -0.72698792     0.86114710     0.49812571
Ti     -0.00401698     6.72026601     1.21964402    -0.66827727     0.15755546     0.03543547
Ti     -0.07524800     2.86262799     1.35190701     0.10702787    -0.28071032    -1.06056605
Ti      5.61181123     2.95300321     3.64692784     0.35182012    -1.27498148     0.83516095
Ti      5.64875023    -0.87438375     3.67050380     0.48333749     1.43766578    -0.53291069
Ti      1.97120521     2.75340925     3.73113883    -0.54798019     0.33369023    -0.18015932
Ti      1.98093820    -0.93777876     3.57497783    -0.08961018    -0.64941128    -0.07890461
O       3.87401102     4.66392698     0.88057597    -0.37032230     1.03671777    -1.13774082
O       4.21233399     0.87173998     0.66064800    -1.29350988    -0.61398403    -0.03807291
O      -0.28455200     4.81667801     0.77154900     1.14729016    -0.00014167     0.50981035
O      -0.24481100     1.05120600     0.78498899     0.79453853    -0.41580590    -0.24786164
O       5.62151322     4.90431622     4.04048479     0.30275162    -1.14521142     0.07886553
O       5.48935220     1.08180425     4.01359179     0.80350320    -0.80692097     0.79940409
O       2.03177621     4.75940225     3.88962482    -0.60070325    -0.79816611     0.67050179
O       2.11003020     0.87459124     4.22018280    -0.74765137     0.94545592    -1.83257066
O       3.76055923     2.86374821     3.19636982    -0.53582710     0.22441985     0.11427272
O       3.83550423    -0.83233676     3.11872681    -0.93596006    -0.28965853    -0.78960484
O      -0.10632579     2.76018425     3.36566182     1.37480331     0.72881366    -1.06551877
O       0.08811923    -0.80997976     3.21043080     0.24527562    -0.16469053    -0.17760210
O       5.74692801     6.74051201     1.66828901    -0.19130172    -0.49364196     0.11626918
O       5.65065099     2.68660998     1.58876600     0.81479472     1.14484761     1.40580234
O       1.94146301     6.80665398     1.32945201     0.19498302    -0.29967067     1.13140614
O       1.88361399     2.40903800     1.61579198    -0.37095016     1.07596516     0.69651262
