# total energy = -4989.36521460 eV

CRYSTAL
PRIMVEC
        3.61750401     0.00000000     0.00000000
        0.36083989     3.59946244     0.00000000
       -1.98920403    -1.79976025     4.62253629
PRIMCOORD
6 1
Ti      0.27049130     2.69973375     1.15563385     0.00202706    -0.00211165    -0.00122899
Ti      1.71864825    -0.90003185     3.46690189    -0.00202706     0.00211165     0.00122899
O       0.09024811     0.89985992     0.75297331     0.00007688     0.00101302     0.84796016
O       1.89889133     0.89984189     3.86956253    -0.00007688    -0.00101302    -0.84796016
O      -0.09022809    -0.89984180     3.06424136     0.00097959     0.00006402     0.84635760
O       2.07936747     2.69954356     1.55829448    -0.00097959    -0.00006402    -0.84635760
