# total energy = -19519.90288954 eV

CRYSTAL
PRIMVEC
        5.17575250     0.00001323     0.00000000
        0.00001429     5.50856584     0.00000000
        0.00000000     0.00000000     9.26345890
PRIMCOORD
23 1
Ti      1.83860210     3.33207836     3.41941316    -0.03832719     0.00664296    -0.05065204
Ti      3.31487089     2.18825885     5.76283366     0.03231132    -0.00355712     0.01019520
Ti      4.51580068     1.98329783     1.37338801     0.02120698     0.10714768     0.02116353
Ti      0.85813352     3.26860361     7.95672278     0.01883977     0.07095579    -0.02714109
Ti      1.86813876     0.60145463     1.13557411     0.10638020    -0.00625601    -0.01511295
Ti      3.21966838     5.11240415     7.95866852    -0.01378112     0.03567458    -0.00088960
Ti      0.66943218     0.56958431     5.75673986    -0.00934776     0.06111952    -0.07585040
Ti      4.39506430     4.88201531     3.45548041     0.01008361    -0.04596389    -0.00972186
O       1.61439624     1.91840656     4.71054859    -0.00034736     0.02604246    -0.02465972
O       3.52540437     3.58437741     4.54026143    -0.04017402    -0.03172897    -0.02312065
O       0.85490228     1.99904440     0.08477385    -0.01644401     0.05386515     0.02797001
O       3.56721194     0.85605957     0.08313429     0.03053855     0.01891536     0.07102752
O       1.71105698     4.66228185     9.17839582     0.00753719    -0.01127712     0.01760538
O       4.20693761     0.80900873     4.73217216    -0.04192160     0.01049190     0.07639316
O       0.94046654     4.65316706     4.57732060    -0.00209236    -0.02307746    -0.03119726
O       0.15896606     3.39455880     2.44124826     0.04108779     0.01140465     0.05431740
O       4.98143720     2.14315419     6.78270804     0.02001450    -0.05129790    -0.03835136
O       2.76459122     2.19630221     2.11177058    -0.03384653    -0.13215655    -0.03100829
O       2.53576247     3.35523704     7.16913183    -0.05574308     0.06345896     0.01881251
O       0.23471741     0.59395101     2.21353666    -0.04513445    -0.07367936    -0.01202711
O       4.97252948     4.82762887     7.28612699    -0.01328207    -0.07044774     0.06118585
O       2.34919965     0.67086743     6.77978001     0.01690938     0.02385213     0.01276245
O       2.78589765     4.93231298     2.48369335     0.00553250    -0.04012954    -0.03169991
