# total energy = -19928.85726523 eV

CRYSTAL
PRIMVEC
        6.16386017     0.00000000     0.00000000
        1.29908386     6.43029947     0.00000000
        0.00000000     0.00000000    11.08807946
PRIMCOORD
24 1
Ti      3.00393864     3.81058951     4.11359854    -0.10795912    -1.77094695     0.78226331
Ti      4.45900509     2.61971011     6.97448136     0.10795912     1.77094695    -0.78226331
Ti      5.84517943     2.61971242     1.43039711    -0.00433642    -0.22445276    -0.25947506
Ti      1.61776433     3.81058746     9.65768292     0.00433642     0.22445276     0.25947506
Ti      2.35439686     0.59544002     1.43044157    -0.10795912    -1.77094695    -0.78226331
Ti      5.10854689     5.83485980     9.65763846     0.10795912     1.77094695     0.78226331
Ti      0.96822245     0.59543753     6.97443690     0.00433642     0.22445276    -0.25947506
Ti      6.49472130     5.83486228     4.11364300    -0.00433642    -0.22445276     0.25947506
O       2.40833006     2.26421779     5.65816225     1.73275525     1.90364523    -0.52275946
O       5.05461367     4.16608184     5.42991765    -1.73275525    -1.90364523     0.52275946
O       1.58850016     2.26424368     0.11415801    -0.86924788     0.35055076     0.76190865
O       5.87444364     4.16605600    10.97392158     0.86924788    -0.35055076    -0.76190865
O       4.40507187     0.95093216     0.11412201    -1.73275525    -1.90364523    -0.52275946
O       3.05787186     5.47936747    10.97395757     1.73275525     1.90364523     0.52275946
O       5.22490184     0.95090632     5.65819824     0.86924788    -0.35055076     0.76190865
O       2.23804184     5.47939338     5.42988166    -0.86924788     0.35055076    -0.76190865
O       1.01412367     3.91127258     2.99516700     0.45509083     1.18592589     1.37526688
O       6.44882006     2.51902705     8.09291291    -0.45509083    -1.18592589    -1.37526688
O       3.81478477     2.51896699     2.54890823     0.67534189     1.38011855     0.54844710
O       3.64815896     3.91133264     8.53917149    -0.67534189    -1.38011855    -0.54844710
O       0.36458188     0.69612289     2.54887280     0.45509083     1.18592589    -1.37526688
O       7.09836186     5.73417680     8.53920692    -0.45509083    -1.18592589     1.37526688
O       2.99861716     0.69618289     8.09294827    -0.67534189    -1.38011855     0.54844710
O       4.46432657     5.73411674     2.99513157     0.67534189     1.38011855    -0.54844710
