# total energy = -19925.81869108 eV

CRYSTAL
PRIMVEC
        6.23678177     0.00000000     0.00000000
        0.00003418     6.63782183     0.00000000
        0.00000000     0.00000000    11.16246798
PRIMCOORD
24 1
Ti      2.26055368     3.93356708     4.14119609     0.05112615    -0.87795132     0.62773918
Ti      3.97626227     2.70425482     7.02127221    -0.05112615     0.87795132    -0.62773918
Ti      5.37883538     2.70425710     1.43999346     0.05140408     0.87771041    -0.62775898
Ti      0.85798057     3.93356505     9.72247497    -0.05140408    -0.87771041     0.62775898
Ti      2.26053671     0.61465629     1.44003822     0.05112615    -0.87795132    -0.62773918
Ti      3.97627924     6.02316580     9.72243020    -0.05112615     0.87795132     0.62773918
Ti      0.85796361     0.61465382     7.02122745    -0.05140408    -0.87771041    -0.62775898
Ti      5.37885234     6.02316827     4.14124085     0.05140408     0.87771041     0.62775898
O       1.97399284     2.33728997     5.69612208     1.39609436     1.28790873     0.01792754
O       4.26282311     4.30053199     5.46634621    -1.39609436    -1.28790873    -0.01792754
O       1.14445858     2.33731670     0.11492387    -1.39598432     1.28830185     0.01731690
O       5.09235744     4.30050526    11.04754411     1.39598432    -1.28830185    -0.01731690
O       4.26280614     0.98162101     0.11488765    -1.39609436    -1.28790873     0.01792754
O       1.97400981     5.65620089    11.04758033     1.39609436     1.28790873    -0.01792754
O       5.09234047     0.98159428     5.69615830     1.39598432    -1.28830185     0.01731690
O       1.14447542     5.65622768     5.46630999    -1.39598432     1.28830185    -0.01731690
O       0.22661747     4.03749953     3.01526115     0.49246903    -0.28579185     0.32988063
O       6.01019848     2.60032237     8.14720715    -0.49246903     0.28579185    -0.32988063
O       3.34501336     2.60026050     2.56600848     0.49212321     0.28596977    -0.33008966
O       2.89180259     4.03756139     8.59645962    -0.49212321    -0.28596977     0.33008966
O       0.22660051     0.71858855     2.56597284     0.49246903    -0.28579185    -0.32988063
O       6.01021544     5.91923335     8.59649527    -0.49246903     0.28579185     0.32988063
O       2.89178563     0.71865041     8.14724273    -0.49212321    -0.28596977    -0.33008966
O       3.34503032     5.91917148     3.01522550     0.49212321     0.28596977     0.33008966
