# total energy = -19073.39758929 eV

CRYSTAL
PRIMVEC
        5.17600016     0.00000000     0.00000000
        0.00000000     5.50899976     0.00000000
        0.00000000     0.00000000     9.26300011
PRIMCOORD
22 1
Ti      1.65375400     3.30894900     3.28314197    -0.46716936     0.92126569     0.48532470
Ti      3.76539702     2.07955398     5.82008402    -0.59515867     1.30282551    -0.30974220
Ti      4.41962500     2.22146302     1.24019700    -0.68992725     0.07101518    -0.60837337
Ti      0.85387702     3.06781298     7.98140102     0.25803858     1.20537063     0.47367888
Ti      1.75171598     0.55484499     1.34436401    -0.17561490    -0.52055962    -1.27521493
Ti      3.31620698     5.12183897     8.10933200    -1.11452093    -0.56392129     1.68239889
Ti      1.58743999     0.35011499     5.73537401    -2.68686654    -2.04809423     1.90511513
Ti      4.14145599     4.95615400     3.44864401     1.54008005     0.57367246     1.18592306
O       3.02973502     3.37510499     4.58696598     1.06352256    -1.08003831     0.45721970
O       0.85780198     1.90221298     0.35207702    -0.33580857     0.89153267    -1.97764752
O       4.31757200     3.66707298     8.85356900     0.57307725    -0.39405770    -0.24728519
O       3.31716400     0.85396899     0.34086699     1.75774407     0.70443625    -0.35978488
O       1.70126999     4.82421101     9.13040702    -1.15456664    -0.96695703     0.45527415
O       3.13350298     0.44159000     4.95377900     2.75990029     0.26831683    -2.65273847
O       0.64708800     4.76016701     4.37442299     0.25421329     0.47622890     2.09667704
O       5.09935598     3.65456000     2.43508601    -0.32326466    -2.24837604    -0.89634320
O       0.36773400     1.79644902     6.41375898    -0.05159615     0.39678076     0.19732838
O       2.62399302     2.21532801     2.18792800    -0.09915257    -1.05628002     0.36413879
O       2.18516501     4.13909300     6.95490701    -0.76136898    -0.07163945    -1.14673455
O       5.03292201     0.68819999     2.25742702     0.57963640     0.79801801     0.57695628
O       2.75358599     1.29068998     7.15867401     0.26219657     0.30401481     0.48634311
O       2.53654198     4.72579801     2.51986401    -0.59339412     1.03644575    -0.89251380
