# total energy = -19076.04707979 eV

CRYSTAL
PRIMVEC
        7.60600008     0.00000000     0.00000000
        0.00000000     7.60600008     0.00000000
       -1.89786986    -1.89786986     4.85670466
PRIMCOORD
22 1
Ti      3.94447600     6.69916200     1.14385399     1.13667407    -0.99162112     0.42449237
Ti      3.63777598     2.74332397     1.16736501     0.89138457     0.92697971     0.18612685
Ti      0.13461100     6.76539001     1.17123102    -2.21106084    -0.88417597    -1.45045085
Ti     -0.08486199     2.89841101     1.14764798    -0.75326074     0.67612659    -0.18213059
Ti      5.64123724     2.84782124     3.54350782    -0.09296598    -0.09900962     0.53538101
Ti     -1.35274178    -0.93459079     3.77973482    -0.68671748    -0.17331119    -2.16124492
Ti      1.83324325     2.85771522     3.69881383     0.14283743    -1.32623901    -0.55295785
Ti      1.45183525    -1.02013277     3.75158883     0.84237804     0.45696568     0.11919921
O       3.76619698     4.68456701     0.73001002    -0.46303477     0.65891999     0.77863471
O       4.00879602     0.90111800     0.74469998    -0.71818394    -0.43455516     1.41004183
O      -0.14859302     4.78588598     0.70480298     0.43457650    -0.16330908     0.03503824
O      -0.23282698     0.99485402     0.61803299     0.26470237    -0.24894561     2.29913478
O       5.95843323     4.80654522     4.01701483    -0.14033215    -0.30641699    -0.26672120
O       5.71111425     0.90895025     3.96529780     0.39297501     1.16277772     0.27457515
O       2.19424320     4.71619821     4.13259883    -0.81518836     0.58177607    -0.70889634
O       1.82926320     0.80832121     4.03219883    -0.71522846     0.49797762    -0.02386576
O       3.67615022     2.62093523     3.15888279     0.47159577     0.50625709     0.30058675
O      -0.07601076     2.86841523     3.23557582     0.61751159    -0.12577404    -0.51988805
O       5.84607800     6.69022901     1.83808998    -0.82231854    -0.14427262     0.22649730
O       5.57159799     2.97461100     1.57883700     0.85493531    -0.37716015     0.51755503
O       1.81210399     6.71961401     1.93097302     1.91772125    -0.28178067    -0.89406058
O       1.80492200     2.80935000     1.62199802    -0.54899989     0.08879077    -0.34704738
