# total energy = -19939.29922759 eV

CRYSTAL
PRIMVEC
        5.52177653     0.00000000     0.00000000
        2.76559531     5.18543506     0.00000000
        0.00000000     0.00000000    10.22685885
PRIMCOORD
24 1
Ti      3.64026766     3.07288402     3.79409171     2.39306210    -4.05218067     0.94806713
Ti      4.64710433     2.11255117     6.43276725    -2.39306210     4.05218067    -0.94806713
Ti      5.88888283     2.11255302     1.31929691    -5.22972553     0.14292614     1.27337839
Ti      2.39848934     3.07288241     8.90756210     5.22972553    -0.14292614    -1.27337839
Ti      2.25747022     0.48016666     1.31933793     2.39306210    -4.05218067    -0.94806713
Ti      6.02990188     4.70526873     8.90752113    -2.39306210     4.05218067     0.94806713
Ti      1.01569163     0.48016467     6.43272623     5.22972553    -0.14292614     1.27337839
Ti      7.27168046     4.70527067     3.79413268    -5.22972553     0.14292614    -1.27337839
O       2.72149031     1.82587987     5.21868781     0.94196667     1.70842798    -1.31625953
O       5.56588175     3.35955536     5.00817115    -0.94196667    -1.70842798     1.31625953
O       1.98706774     1.82590075     0.10529125     1.36581679    -0.97031181     0.47093320
O       6.30030439     3.35953452    10.12156738    -1.36581679     0.97031181    -0.47093320
O       4.18308420     0.76683780     0.10525806    -0.94196667    -1.70842798    -1.31625953
O       4.10428785     4.41859738    10.12160057     0.94196667     1.70842798     1.31625953
O       4.91750684     0.76681697     5.21872095    -1.36581679     0.97031181     0.47093320
O       3.36986517     4.41861828     5.00813796     1.36581679    -0.97031181    -0.47093320
O       1.88281073     3.15407551     2.76252971     0.61707656     0.97378691     1.02219566
O       6.40456133     2.03135972     7.46432919    -0.61707656    -0.97378691    -1.02219566
O       4.04489597     2.03131129     2.35093224     1.59687986     0.43895046    -0.34593872
O       4.24247609     3.15412394     7.87592649    -1.59687986    -0.43895046     0.34593872
O       0.50001318     0.56135796     2.35089960     0.61707656     0.97378691    -1.02219566
O       7.78735886     4.62407722     7.87595914    -0.61707656    -0.97378691     1.02219566
O       2.85967854     0.56140639     7.46436178    -1.59687986    -0.43895046    -0.34593872
O       5.42769351     4.62402879     2.76249707     1.59687986     0.43895046     0.34593872
