# total energy = -19073.35956776 eV

CRYSTAL
PRIMVEC
        5.93400000     0.00000000     0.00000000
        0.00000000     9.29699974     0.00000000
        0.00000000     0.00000000     4.64899994
PRIMCOORD
22 1
Ti      4.34653202     6.85102401     2.33282700     0.03028375    -0.20041217     1.02421604
Ti      4.34145499     2.55220701     2.05917801     1.82101637    -0.86840173     0.76124299
Ti      1.53278302     7.25388099     2.55379300     0.35648384    -0.46643454     1.37769837
Ti      1.64569902     2.35333902     2.18456699    -0.53509099    -0.20825326     1.00400176
Ti      2.95566201     4.55295401     4.49508901    -0.89184454     0.75594035    -0.60362351
Ti      3.07099503     9.26924397     0.09040401     0.95299465     0.91173332    -1.49735087
Ti      5.76492401     4.65393701     4.42012898     1.39641550    -0.69164526    -0.06197878
Ti      0.09432299     9.15561200     0.42028199    -0.40665200    -0.10712222     0.27541153
O       4.40982400     5.38723798     0.78588098    -0.27179784     0.88581402     2.51777762
O       4.50129700     0.75803599     1.10422999     0.69347974     0.92189432     0.02909127
O       1.59887302     0.54736602     1.36264200    -1.58293264     1.17949633    -0.76562030
O       4.24521199     8.15385798     3.87686398     1.30998346     1.67758167    -0.39062991
O       4.34606200     4.11337298     3.33087598     0.55355152    -2.17817307    -1.58955555
O       1.50968999     8.50995701     3.88519000    -1.06052723     0.41018598    -0.73441275
O       1.56320399     3.81423998     3.37586298    -0.97011024     0.29086258     0.80810008
O       2.88471299     6.17913602     3.43696697    -0.92149169    -0.20597552    -1.31620039
O       3.02010998     1.51308799     3.34136602     0.35568526     0.27497701    -0.27975644
O       0.00089299     6.28007801     3.55915199     0.94708651    -0.58424202    -1.08498768
O       2.96956101     7.83831498     1.38036600     0.04443151    -1.93146509     1.49301188
O       2.92131502     3.06666599     1.03608000    -0.38241317     0.31605966    -0.35934574
O       0.02120498     7.69963800     1.52978301    -0.63737568    -0.02590670    -0.93104154
O       0.06731399     3.07397202     1.14402401    -0.80117610    -0.15651391     0.32395218
