# total energy = -19958.23933453 eV

CRYSTAL
PRIMVEC
        7.60600008     0.00000000     0.00000000
        0.00000000     7.60600008     0.00000000
       -1.89786986    -1.89786986     4.85670466
PRIMCOORD
24 1
Ti      3.56278998     6.76069801     1.34120699     2.31654578     0.18758313     1.78014559
Ti      3.86987498     2.97295700     1.29297502    -0.99055514    -0.79920329    -0.10142749
Ti      0.03241798     6.65416500     1.16982098    -1.69119130    -0.30583001    -0.87701081
Ti     -0.02332597     2.76682701     1.13364002     0.81877788    -0.72735893    -1.71117135
Ti      5.75389521     2.78182522     3.62140181    -2.04475591     0.47119622     1.18756188
Ti      5.85799221    -1.09224878     3.52521982    -2.35421760    -0.36800547    -0.94044535
Ti      1.72318623     2.98478623     3.52982382     1.88743879    -0.82550131     2.68160297
Ti      1.83284425    -0.85443578     3.73516984     0.76871436    -0.07650860     1.05973995
O       3.62635602     4.69495798     0.76203302    -0.02099229     0.65467047     0.80391509
O       3.58650400     1.00540698     0.97616999     0.70993095     1.24568040    -0.89444984
O       0.36495799     4.77123698     0.67257698    -1.60598594    -1.92230605     0.43606286
O       0.11600401     0.78755497     0.56365098    -0.38331460     1.70374086     2.39039278
O      -1.37350580     4.72567323     3.90339783    -2.11406310    -2.18370609     0.44169435
O       5.75080524     0.72532421     3.99346580    -0.25959153     3.74015919     1.33221425
O       1.79510724     4.85928721     4.45094980     0.42031690    -0.98783311    -6.14431611
O       1.93720424     1.01324420     4.12481580    -0.23093606    -1.01908154    -0.63555868
O       3.71475122     2.96010921     3.30518882     1.02285721     0.44518668    -0.43309606
O       3.91253121    -1.03589177     3.17686381    -2.05092527    -0.52686783     1.25961193
O      -0.14652976     2.70286721     3.18270879     3.50556111    -0.24174292    -0.90100307
O       0.02873120    -1.06371978     3.19210481     2.88711981     0.83243815    -0.40004657
O       5.78818997     6.79734602     1.59733598     0.59840057    -0.68594898    -0.77857635
O       5.73728201     2.65660701     1.59156699    -0.31356106     0.65812218    -0.39894820
O       1.81347101     6.77940199     1.68899000     0.27979475    -0.17424707     1.39252284
O       1.86369898     2.65041998     1.71890302    -1.15536831     0.90536469    -0.54941410
