# total energy = -19071.32329640 eV

CRYSTAL
PRIMVEC
        5.93400000     0.00000000     0.00000000
        0.00000000     9.29699974     0.00000000
        0.00000000     0.00000000     4.64899994
PRIMCOORD
22 1
Ti      4.50785498     6.94444301     2.35882701    -1.32490975     0.54255773     0.86695034
Ti      4.28306102     2.12467598     2.39432602     1.71283588     2.12800903     0.27214289
Ti      1.49132399     7.10038001     2.36991100     1.70860641    -0.40833607     0.39169049
Ti      1.49038698     2.53351202     2.10240402    -1.28370420     1.01805130    -0.69999261
Ti      3.05125899     4.51529802     4.46650899    -2.51264878     1.09503196     0.51839938
Ti      3.13392399     0.36855200     0.02422399    -0.15624111    -2.72021838     1.00384492
Ti      5.81837499     4.66960500     0.03762598     2.10439652    -2.18140598    -1.55028579
Ti      0.12008101     9.20163798     0.03235300    -0.05913334    -1.27425128     0.79528287
O       4.69509298     5.52499002     1.01533800    -2.69937830     1.21106280     0.51005795
O       4.55535198     0.97132998     1.13788598     0.75969725    -4.16837015    -3.34661545
O       1.48264803     0.78980498     1.14663100    -0.55555106     0.58579162    -2.35915695
O       4.37884300     8.32628700     3.87071499     0.33759111     1.76666529     0.98176556
O       4.18982401     3.62404600     3.54865100     2.31532451     0.39601303     0.44106571
O       1.32751702     8.02881900     3.89958002     0.56989191     3.25856953     1.82811570
O       1.44697899     3.77062498     3.61840899     0.54957248    -0.12890668    -0.19303310
O       2.94526299     6.00216798     3.03186501     0.28661486    -1.65223676     1.54759385
O       2.79935400     1.29528800     3.12708199    -1.09174711    -0.09603562     1.77176481
O       5.91260801     6.19343899     3.40797298    -0.60937816    -1.98122650    -0.07948260
O       2.90055799     8.03203100     1.67826998     1.00129079    -0.22880358    -1.31696915
O       3.17692901     3.01674298     1.21406702    -2.63940498     1.62180954    -0.60653169
O       0.04678001     7.90676702     1.60743098    -1.43445807     1.00852047    -1.93718091
O       5.63900797     3.11482598     1.20766101     3.02073289     0.20770845     1.16057377
