# total energy = -19518.05465655 eV

CRYSTAL
PRIMVEC
        5.93400000     0.00000000     0.00000000
        0.00000000     9.29699974     0.00000000
        0.00000000     0.00000000     4.64899994
PRIMCOORD
23 1
Ti      4.56176000     7.16803299     2.26301402    -0.00571479    -1.49417273    -0.06633680
Ti      4.44579101     2.25841902     2.34841101    -0.25469640    -0.56141010     0.42124918
Ti      1.46914501     7.03288599     2.20972899    -0.76296358     0.09950507     0.50767865
Ti      1.44476603     2.32339801     2.28233598    -0.24839925    -1.05032791     0.54286575
Ti      2.99247698     4.42541203     0.07199599     0.09609656     0.17236785     0.36946920
Ti      3.03605202     9.23613002     0.00280602    -1.47168354     1.32539672    -0.28321329
Ti      0.01654499     4.74145203     0.06961798    -0.12847499     0.53138783    -0.56697011
Ti      0.01917400     0.03842901     4.61635802     0.92856865     0.48654340     0.29867874
O       4.42213197     5.72330401     0.88590997    -0.23815932    -1.11959423    -0.28163643
O       4.39052998     0.86516300     0.95295398     0.10423333    -0.17424733    -0.46131264
O       1.55334801     5.63386802     0.91319901     0.10764133    -0.44307040     0.08308317
O       1.46045798     0.87908698     1.02120398    -0.37378840     0.07863259    -0.73156294
O       4.36883499     8.28274698     3.76894500     0.50663195    -0.03895068     0.22250258
O       4.33794702     3.76571098     3.54423501     0.03227610     1.08020234     1.81120452
O       1.35937502     8.36726098     3.74672802     0.95130929    -0.42664310     0.10913771
O       1.49689898     3.75783900     3.79575100    -0.10997666    -0.19770814    -0.56395806
O       2.96443100     1.37145799     3.31801899    -0.44417726     0.26029472    -0.33036785
O       0.04005401     6.02227598     3.30497302    -0.24805344     0.74246365    -1.15409716
O       5.84841701     1.24036300     3.19987900     0.20090685     1.42767369    -0.15502189
O       2.94547000     7.93298098     1.44661502     0.15435469    -0.95636666     0.93222553
O       2.90716900     3.11908300     1.37849599     0.26778461     0.63104357    -0.26423057
O       0.02477698     7.98307100     1.47342198     0.14225842    -0.25692272    -0.17569357
O       5.82261698     3.25888401     1.43302702     0.79402586    -0.11609872    -0.26369398
