# total energy = -39034.89971443 eV

CRYSTAL
PRIMVEC
        5.93200024     0.00000000     0.00000000
        0.00000000     9.29399984     0.00000000
        0.00000000     0.00000000     9.29399984
PRIMCOORD
46 1
Ti      4.38726999     7.12989402     6.89990300     1.54893313    -1.18444262     0.12019295
Ti      4.47230401     6.91346201     2.33082200     0.08397432     0.17814178     0.73477630
Ti      4.39163898     2.13048999     7.11188802     0.91700562     0.62949936    -1.16880053
Ti      4.57978102     2.56611601     2.11080000    -0.49138068    -0.88099602     1.02864888
Ti      1.46473199     6.90632399     7.14623401    -2.02103799    -0.06235236    -0.52749852
Ti      1.46255098     7.05023199     2.23322399    -0.00846485    -0.98300535     0.02938335
Ti      1.45125802     2.47338098     6.78698298     0.21511503     0.15443080     0.70676078
Ti      1.56278700     2.15762800     2.62531200     0.49664938    -0.14932870    -1.35929724
Ti      2.89089299     4.78439100     4.65776201     1.56066585     0.00653549    -0.39450173
Ti      3.06365100     4.78693899     9.07641401    -1.25065986    -0.20029750     0.65315146
Ti      2.90209001     9.20094301     4.78058701     1.23031574     0.78486810    -1.49779645
Ti      2.96294698     9.24592700     9.27690800     0.34823111     0.26058937     1.47062090
Ti      0.01109801     4.51353602     4.63662000    -1.68764369     0.60647204    -0.36954839
Ti      0.01900699     4.75813900     9.20508901     1.23028437    -0.50457275     0.82239979
Ti      0.00546100     9.11425500     4.78129600    -1.05863618    -0.42953482    -0.04745281
Ti      0.03545699     0.06490899     9.27001297    -0.31339111     0.37076581     0.77748312
O       4.47598999     5.58086399     5.58136099    -0.86518142    -0.12720872    -0.53842057
O       4.39218800     5.66894401     0.88925797    -0.44564433    -2.08449566    -1.16828400
O       4.53292603     0.73839901     5.66500899    -0.24752225     0.13511743    -0.23565429
O       4.56903999     0.84668201     0.93661002    -1.16182333     1.63710992     0.54799999
O       1.37192499     5.52295602     5.62582501     0.78154700    -0.15940331    -0.10646505
O       1.53552098     5.66603798     0.78297600    -0.24358306    -0.36730228    -0.30049985
O       1.42205898     0.97533199     5.49394700    -0.05607938    -1.06551851    -0.76280185
O       1.51825499     0.83590500     0.97184201     0.17189708     0.60265061     0.56037677
O       4.43576199     8.46983501     8.37873402    -0.34168842    -0.38070699    -0.74804474
O       4.37656701     8.25217498     3.81307499     0.59307324     0.78234559     0.47468496
O       4.45647002     3.73002301     8.16808200    -0.49535149     0.92237177     1.84378607
O       4.40530498     3.84685502     3.64884102     0.45206772    -0.40063176    -0.50088322
O       1.46990401     8.21525598     8.53975800     0.66231333     0.53964467    -0.53833778
O       1.56993401     8.08365701     4.01832899    -0.59387286     1.61265461    -1.15799315
O       1.40426899     3.86013198     8.30841102     1.03098678    -0.40891920    -0.57307134
O       1.54051499     3.63290300     3.79047098    -0.68873349     0.42778776    -0.06430357
O       2.97793899     6.11385798     7.81552401     0.88810821    -0.62036963     0.29795137
O       2.78020900     5.87037501     2.98248600     0.83412505     0.41917250     1.70201899
O       2.88913802     1.50371399     7.85880901    -0.66573573    -1.34834408     1.03257547
O       3.15428001     1.57078303     3.31102898    -0.58225635    -0.75940234    -0.70274986
O       5.70406899     6.11252398     7.96342598     1.07590808     0.49088985    -0.65131827
O       0.05040397     6.05018701     3.21185899    -0.33669123     0.02341762    -0.38101346
O       0.07608299     1.43691801     7.96686103    -0.31469929     0.17237119    -0.80077295
O       2.91152799     7.92292100     6.15155900    -1.18112358     0.06815251     0.37919543
O       3.01805502     7.96211499     1.50189801    -0.65692173     0.18954205    -0.38774564
O       2.96376302     3.11210501     5.95288999     0.18304436     0.68412401     0.18667399
O       0.02701699     7.85668601     6.16886702     0.55440487     0.40105059    -0.29569111
O       5.77112999     7.87846599     1.34482302     1.07072422    -0.52792661     1.09100818
O       5.84423699     3.04989498     5.91160400     0.01476842     0.81250875     0.14853963
O       0.14965403     3.25841400     1.35157500    -0.23602016    -0.26745525     0.67071827
