# total energy = -39023.45603759 eV

CRYSTAL
PRIMVEC
        5.93200024     0.00000000     0.00000000
        0.00000000     9.29399984     0.00000000
        0.00000000     0.00000000     9.29399984
PRIMCOORD
46 1
Ti      4.51387602     7.00924700     7.00124801    -1.37956551    -0.52443145    -2.49037350
Ti      4.37691103     7.03723302     2.28492699    -0.42804307    -1.10341710    -0.87287082
Ti      4.70508998     2.54397401     6.60642299    -0.12934119    -0.49524479     0.05715513
Ti      4.32159200     2.14035402     2.46086498     0.96846756    -1.47292821     2.64059232
Ti      1.50806600     6.88108102     6.99954401    -0.96619496     0.28284742    -2.47067010
Ti      1.35632701     7.07631599     2.10694901     0.34397696    -0.22302066     0.99069861
Ti      1.67896400     1.99376202     7.19459102    -2.50715433     1.82780871     2.46192475
Ti      1.59429400     2.50725398     4.47747698    -0.32310525     2.28536857    -3.51813766
Ti      2.89074799     5.05321400     4.32527698     0.45953421    -1.28093873     5.61932905
Ti      3.05007501     4.81318100     9.18485502     0.32928645    -0.05001466    -0.30524611
Ti      2.98744900     0.09773602     4.89240502     2.01291638    -1.99810091    -0.05688362
Ti      2.85911701     9.18132001     8.92122399    -0.42480219     0.36208679     1.02299862
Ti      5.84080898     4.83992498     4.41518499    -1.82681061     1.40707221     1.31141531
Ti      0.05480398     4.80512999     8.89509603    -1.10832842    -1.21615513     1.19767249
Ti      5.86824502     9.07076599     4.50277298     1.82440354     1.13309278    -0.27819681
Ti      5.79935699     0.14243901     0.12695999     0.75978646     0.18822333    -0.68450942
O       4.30189698     5.44146701     5.67994502     0.46320189     2.00792176    -2.75851421
O       4.58242701     6.08170703     0.23517500    -1.00462011    -2.64890444     1.71155393
O       4.66715898     0.94902801     5.37534102    -2.25734431    -0.13697120     1.08624675
O       4.27138901     0.56933699     1.33470901     1.13752639     2.84177813    -2.00498478
O       1.36934297     5.52278499     5.49793498     0.55264623     2.41355637    -0.32054675
O       1.37742399     5.70375699     0.49926598     1.24268172     0.23976137     0.73105540
O       1.56681203     1.09679902     5.52284600    -1.37022032    -3.43430501     2.20237745
O       1.53342602     0.96847099     0.41362600     0.59224021    -0.14464415     0.65884183
O       4.63706499     8.23949002     8.26436897    -0.89073280     2.02478434     2.08038318
O       4.51733398     8.23474701     3.78458801    -3.17122270    -1.56096847    -0.56936561
O       4.48817001     3.69593701     8.05474700    -0.70206672    -0.25102178     0.90155046
O       4.48217602     3.74106302     3.83117100    -0.49201394    -0.65987824    -3.00416984
O       1.38015798     8.32809901     8.28481998     0.33632304    -0.62950013     1.09445217
O       1.46139500     8.26266201     3.75543902     1.57680056    -0.50677156    -0.94930666
O       1.68855698     3.43415403     8.47850700    -0.23306596     1.09308075     0.12879303
O       1.29512502     4.12423302     3.58329300     1.77107962    -2.24317264    -2.24072032
O       2.86132198     5.91174900     7.69391902     1.21557509    -0.13113685     0.50136247
O       2.85718498     5.62812597     2.71668397     1.09126658     3.01187518    -3.58771971
O       3.22692901     1.12935601     7.15122299    -0.05050600    -0.33879567     3.21083750
O       2.90848702     1.44480899     3.52545901     0.74359365     0.94368288    -1.93253107
O       5.75890298     5.69315699     7.42879402     2.50822442     1.70780603    -0.74902434
O       5.86051898     5.82276398     2.67903000    -0.93446728     0.79894078     1.37111069
O       5.78001302     1.25691900     7.88136302     0.72434739     1.89983845    -1.18202141
O       2.86853398     7.88642899     6.16107202     1.10887992     0.19716306    -0.68519102
O       2.90035500     7.94545999     1.54112100    -0.50709244    -0.39030389    -1.52698542
O       2.89152202     3.53217803     5.47394198    -0.37490812    -3.91780988     2.14615023
O       0.23941598     8.15016300     5.98002202    -1.10244008    -2.99367305     2.84782717
O       5.76927501     7.98549002     1.62028698     1.82729269     1.33712558    -2.02538084
O       0.26350699     3.27358001     5.67992602    -1.05933218    -1.32028022     2.47418686
O       0.07948898     1.50550801     3.70346799    -0.34667200     1.66857407    -4.23516564
