# total energy = -19958.00992505 eV

CRYSTAL
PRIMVEC
        7.60600008     0.00000000     0.00000000
        0.00000000     7.60600008     0.00000000
       -1.89786986    -1.89786986     4.85670466
PRIMCOORD
24 1
Ti      3.80721700     6.56128502     1.26810099    -0.66845030     2.24263451    -3.12635590
Ti      4.04030699     2.94379500     1.17665202    -3.72213935    -2.40560086     0.66697269
Ti     -0.15455198     6.70326201     1.21607398     1.13730039    -1.19059244     3.42916846
Ti     -0.01433800     2.72032202     1.20210502     2.59272864     0.88864069     1.35391617
Ti      5.69500223     2.78751324     3.72123681     0.05723561    -0.52622788     0.22782888
Ti      5.55473523    -0.98318577     3.67083379     2.38009268     0.26836979    -0.21946199
Ti      1.90609423     2.90131021     3.59679782    -0.37486724     3.10559012    -2.56622622
Ti      1.94531024    -0.72616978     3.58443682    -2.11369415    -3.29341596     1.63113699
O       4.02716302     4.78331698     0.61667999    -0.08038506    -0.33089493     2.03332478
O       4.00982400     0.94984999     0.69348102    -0.69190032     1.27039746     0.19446186
O      -0.07238198     4.45146702     0.94723701    -0.25962752     3.72632588    -2.05561317
O       7.21745301     0.89922699     0.96721197     1.28739760    -0.34591326    -1.65327754
O       5.55750325     4.66710622     4.26933379     0.20008127    -0.05964936    -2.27656614
O       5.69069420     0.88110224     3.99473181     0.42010427    -0.76779494     0.48683111
O       2.11604922     4.84420322     3.92289981    -0.70561818    -1.61392473     1.39639467
O       1.81184422     1.03548521     3.74739383    -0.08274173     0.07678962     1.83078168
O       3.72316222     2.76402523     3.17333981     3.68098471     0.22993153    -0.17352279
O       3.81953524    -0.78004277     3.21137681     0.45696645    -0.44938786     0.06765526
O      -0.05246078     2.90768521     3.15297681    -0.10735260    -0.25775216     1.33829697
O       0.04657421     6.36434123     3.14657683    -2.16662753     0.90361557     0.82446516
O       5.64635698     6.82984099     1.68420301    -0.26266502    -1.72067878     0.86144406
O       5.73191901     2.83459102     1.71916898    -0.57910135     0.16260922     0.13232496
O       1.91015397     6.53832000     1.77381998     0.92090110     0.31037598    -3.38038613
O       2.03525100     2.86408900     1.62006599    -1.31862186    -0.22344772    -1.02359357
