# total energy = -19075.75446082 eV

CRYSTAL
PRIMVEC
        7.60600008     0.00000000     0.00000000
        0.00000000     7.60600008     0.00000000
       -1.89786986    -1.89786986     4.85670466
PRIMCOORD
22 1
Ti      3.89101402     6.72201197     1.24289602     0.24417416     0.11362480    -1.03246979
Ti      3.80972297     2.93712101     1.25801302    -0.32933735    -0.55503607    -0.91049353
Ti      0.01322298     6.59092498     1.00044499    -0.27478392    -0.35933057     1.10757637
Ti     -0.07489297     2.80616298     1.09288998     0.05858261    -0.12405680     1.12726846
Ti      5.61171423     2.74677622     3.55324780     1.31914456     0.08007421     0.03662846
Ti     -1.44920476    -0.98650175     3.76807683    -0.93994913    -0.24572428    -1.45701333
Ti      1.89330322     2.90092121     3.63772079    -1.19629515    -1.14172192    -0.28379513
Ti      1.56044020    -0.94630079     3.79745379     0.71296820     1.49979779    -0.03818244
O       3.67219298     4.71214698     0.75333599     0.34660258     2.25915000     0.05408318
O       4.19877102     1.09280801     0.86441400    -1.41846863    -2.03337723     0.17080873
O      -0.01411400     4.64760699     0.64177400     0.43910987     0.88531934     0.13577152
O       7.28249599     0.87718802     0.66814502     1.04991114     0.41668265     1.46939731
O       5.56319921     4.78008324     4.00892482     0.67931605    -0.26341296    -0.63216405
O       5.41052321     0.81091921     3.91828083     1.05079842     0.51669962    -0.11794863
O       2.00869821     4.87596322     4.15280779    -0.35534202    -0.90302396     0.48309375
O       1.97034921     0.98702622     4.07256981    -0.64944727    -0.29139943    -0.57945411
O       3.74645724     3.00356620     3.25129482     0.02225188    -0.17844697    -0.28370668
O      -0.11582076     2.92294822     3.18131980     1.12618165    -0.35276345     0.03096175
O       5.79469801     6.45018500     1.83327500    -0.24093251     0.41814998     0.13026242
O       5.72158302     3.03810999     1.56682399    -0.80768690    -0.19778938     0.51905270
O       2.06523000     6.56933402     1.94947301    -0.36078376     0.63646937    -0.16408298
O       1.87438000     2.77896401     1.60513901    -0.47601447    -0.17988524     0.23440551
