# total energy = -19961.09410699 eV

CRYSTAL
PRIMVEC
        7.60600008     0.00000000     0.00000000
        0.00000000     7.60600008     0.00000000
       -1.89786986    -1.89786986     4.85670466
PRIMCOORD
24 1
Ti      3.76231499     6.55523197     1.26333300    -0.13284972     0.11954323    -0.60711019
Ti      3.76319501     2.79802799     1.25292303    -0.28921373    -0.08485698    -0.42638754
Ti      0.04743698     6.72830199     1.16640699    -0.43637910    -0.45187592     0.83411040
Ti     -0.02697799     2.91833998     1.15508302     0.61917586     0.66117768     0.13948291
Ti      5.73289524     2.97800324     3.58745779     0.48005342    -0.50891638     1.10761211
Ti      5.71282524    -0.92167378     3.58532483     1.58878499     0.32579283     0.61883879
Ti      1.87993520     2.76572823     3.62763880    -0.74984503     0.05412174    -0.07516700
Ti      1.90916722    -1.06839178     3.64951779    -1.42934748     0.24201854     0.32454276
O       3.57752598     4.71119298     0.81451502     1.02619990    -0.12783864    -0.46588149
O       3.68156101     0.91556898     0.99332100     0.72161508    -0.71971272    -0.89308304
O       0.09261898     4.85582998     0.75575698    -0.48080933    -0.87541544     0.24462873
O       0.09135901     1.03345999     0.69249500    -0.60492192    -0.14496245     0.67168090
O      -1.55259579     4.77674624     4.15110882    -1.02218229     0.89717315    -1.54713490
O       5.72858620     1.05962421     4.09739881    -0.49825838    -0.67178991    -1.16327086
O       1.63107521     4.62532720     4.12062482     1.10697216     1.39673997     0.27767333
O       1.92223123     0.81801823     4.01677881     0.35571225     0.76580130     0.62566482
O       3.75038924     2.93328824     3.19280279     0.48211622    -0.05478689     0.67413424
O       3.83258020    -1.19320278     3.23138479    -0.35353376     0.03864729     0.20710475
O      -0.03552377     2.84902824     3.18030881     1.14847930    -0.68594332    -0.15992936
O       0.00529521    -0.94234377     3.17712782    -0.00007199     0.31466483     0.91444095
O       5.78965998     6.61662299     1.65066598    -1.89739745     0.25793162    -0.79901483
O       5.73840900     3.09077498     1.67713897    -0.97850695    -0.41795868    -1.09526027
O       1.82447901     6.62026098     1.74370699     2.32244081     0.07262392    -0.06756964
O       1.92595298     2.92084998     1.58980499    -0.97823287    -0.40217905     0.65989418
