# total energy = -4945.11446268 eV

CRYSTAL
PRIMVEC
        4.54856507     0.00000000     0.00000000
       -0.00000644     2.44922764     0.00000000
       -2.27430779    -1.22466893     4.90699987
PRIMCOORD
6 1
Ti     -0.00019469     1.83700513     1.22674977    -0.02686444    -0.02656748    43.26591527
Ti      2.27444518    -0.61244627     3.68024971     0.02686444     0.02656748   -43.26591527
O       0.00004828     0.61229732     0.79931013     0.02670709     0.02623529   -31.69246496
O       2.27420212     0.61226144     4.10768945    -0.02670709    -0.02623529    31.69246496
O      -0.00001858    -0.61231392     3.25281006    -0.00120996    -0.00005579     0.06120950
O       2.27426888     1.83687268     1.65418952     0.00120996     0.00005579    -0.06120950
