# total energy = -19072.91842653 eV

CRYSTAL
PRIMVEC
        5.93400000     0.00000000     0.00000000
        0.00000000     9.29699974     0.00000000
        0.00000000     0.00000000     4.64899994
PRIMCOORD
22 1
Ti      4.49517902     6.95282099     2.45815501    -0.18102141    -0.43577412    -0.25911690
Ti      4.35107501     2.41281399     2.14692200     2.94752507    -1.83171885     1.07670281
Ti      1.48413602     7.13782099     2.44475598    -0.24568957    -0.71648804     0.15524764
Ti      1.60442600     2.36196302     2.29136998    -1.80463227    -0.99276732     0.14571167
Ti      2.94406398     4.55122900     4.49146102    -0.73769142     1.04922568    -0.46164689
Ti      3.02483299     9.12164199     0.10006599    -0.27881593     1.22985192     0.22939725
Ti      5.71206899     4.61300700     4.55882401     0.91907973    -0.79451205    -0.55551507
Ti      0.01560602     9.23325003     0.07248802     0.08430522     0.39985374     0.72646881
O       4.52861699     5.58124299     0.83816702    -1.48286193     0.52277797     2.05047481
O       4.42935101     0.89995402     0.95305098     0.88968430    -0.18452763    -0.94004657
O       1.39853599     0.76924999     1.08591903     0.44679028     1.30710254    -0.60367108
O       4.47406998     8.14555302     3.96040397    -0.30089014     1.32710033    -0.52336881
O       4.31605199     3.91290301     3.46744197     0.83664679    -0.90945275    -0.57014182
O       1.55919801     8.38557898     3.68249400    -0.58188560     2.38894525     1.90387766
O       1.40248699     3.97756202     3.54920399     1.22654342    -1.17722707     0.19871961
O       2.87664500     6.17775000     3.36130198     0.65817411    -1.31811792    -0.05623673
O       3.05195301     1.36194502     3.18694797    -0.00248497     0.89798639     0.36742081
O       0.17030501     6.26077701     3.58407402    -0.42509607    -0.60752671    -1.82441023
O       2.98854699     8.01058901     1.64337000     1.00736656    -0.56987571    -1.26009864
O       2.97847399     3.02607899     1.29450001    -1.44590436     3.01041531    -2.65786885
O       0.09881999     8.00913202     1.39067199    -0.83824293    -2.32858343     1.46761400
O       0.14818498     3.18750398     1.12847599    -0.69089913    -0.26668726     1.39048602
