# total energy = -4988.90645237 eV

CRYSTAL
PRIMVEC
        3.42889351     0.00000000     0.00000000
        0.00000000     3.97102444     0.00000000
        0.00000000    -0.00006265     4.77932806
PRIMCOORD
6 1
Ti      1.71444681     1.98548073     2.38966403     0.00000000     0.00000000     0.00000000
Ti      0.00000000     0.00000000     0.00000000     0.00000000     0.00000000     0.00000000
O       1.71444681     0.77388190     0.93142063     0.00000000    -0.03764945    -0.03139832
O       1.71444681     3.19707951     3.84790738     0.00000000     0.03764945     0.03139832
O       0.00000000     1.21157351     3.32108572     0.00000000     0.03752038    -0.03164412
O       0.00000000     2.75938796     1.45824234     0.00000000    -0.03752038     0.03164412
