# total energy = -19068.44072613 eV

CRYSTAL
PRIMVEC
        7.60600008     0.00000000     0.00000000
        0.00000000     7.60600008     0.00000000
       -1.89786986    -1.89786986     4.85670466
PRIMCOORD
22 1
Ti      3.85654299     6.70946301     1.19565102     0.97189792    -0.65274394    -0.88062167
Ti      3.82860201     2.81521302     1.16725299     1.98932265    -0.38296853    -0.73585797
Ti     -0.18198300     6.72607801     1.32902200     0.90333686    -0.25695949    -3.68616060
Ti      0.15525500     2.76551899     1.05894400    -1.98655125     1.10642195     2.42477127
Ti      5.78731625     2.80749820     3.78803083    -1.07566923     1.91292769    -1.16301298
Ti     -1.18264675    -0.41305078     3.72275582    -3.30396392    -2.41992242     1.71866277
Ti      1.87432725     2.88216024     3.67961083    -0.18365011    -1.83098300     2.11162261
Ti      1.27138523    -0.92616078     3.66308981     3.10135269     0.56040017    -0.20162136
O       3.67865699     4.77123301     0.86778301     0.42299548    -0.70296738    -0.56939337
O       4.00650299     1.03486099     0.35303700     1.53908812    -3.03892217     5.86674177
O       0.63340199     4.69735701     0.72577200     0.15128994    -0.88009588     0.83262019
O       7.12067602     1.14285897     0.58045098     0.25783161    -4.29403312     1.11576817
O       4.99764324     4.41684422     4.46300584     0.06632960    -0.50724927    -1.36313872
O       5.27483322     0.90040922     3.98790082    -0.07389559     4.25560077    -0.91257253
O       2.00034922     4.65260020     4.11077281    -0.64993321     1.26039920     0.27428796
O       1.90759720     0.85677120     3.97947679    -1.33639873     2.68185391    -0.17295149
O       3.48372624     2.34788320     2.95599782    -0.45530860     1.66044938    -0.99503452
O       0.12293523     3.02946324     3.03217379     0.42348836    -0.63577080     0.07050045
O       5.79236799     6.39799198     2.13203403    -1.43801673     0.53778576    -0.67103118
O       5.65569902     2.90729198     1.85184499    -0.81445302     0.41260565    -1.20561669
O       2.31633202     6.60302499     2.18411401    -0.09371520     0.57501098    -1.97759661
O       1.72873000     2.00629098     0.48443600     1.58462263     0.63916029     0.11963399
