# total energy = -19518.27068034 eV

CRYSTAL
PRIMVEC
        5.93400000     0.00000000     0.00000000
        0.00000000     9.29699974     0.00000000
        0.00000000     0.00000000     4.64899994
PRIMCOORD
23 1
Ti      4.49895602     7.02042497     2.26116598     1.78520218     0.42058507    -0.34986865
Ti      4.43431199     2.27789300     2.39144698     0.56704956     0.07177649    -0.20875746
Ti      1.49289602     7.04749202     2.21155302    -1.51702033     0.63301843     0.04746258
Ti      1.44026199     2.29906200     2.29701101    -0.42698892    -0.10877802    -0.17844645
Ti      2.93267502     4.42192501     0.17597303     0.66831044     0.99969387    -0.03325620
Ti      2.95935900     0.01410400     4.55562202    -0.14990745    -0.93492930     0.18304307
Ti      0.01055301     4.63871798     4.63848800    -0.47985879     0.51297384     0.10313007
Ti      5.90688798     0.14144299     4.62066499     0.11043484    -1.32060906     0.63041365
O       4.46082801     5.56475499     0.95630600    -0.47335107     0.06255368    -0.43453639
O       4.46031100     0.96320298     0.97877899    -0.16370606    -0.42691718    -0.64873559
O       1.52856802     5.50643902     0.96173102    -0.11094803     0.26749099    -0.51157490
O       1.52777002     0.90589801     0.90948101    -0.02316668     0.43981590     0.24224737
O       4.53172702     8.45340199     3.73554301    -0.61059917    -0.61942295    -0.25614008
O       4.37293399     3.65081703     3.83086101     0.51268279     0.76626899    -0.27949907
O       1.42038201     8.35859798     3.58792902     0.96530279     0.83596262     1.57872015
O       1.50894798     3.71246300     3.78849900    -0.11951418     0.03964283    -0.39475601
O       2.96146301     1.34185798     3.24530702    -0.42271497     0.50179725    -0.25280793
O       0.06117601     6.12380398     3.14327000    -0.47223109    -1.18346380     1.12912608
O       0.01611900     1.45542799     3.29544497     0.16798952     0.36587891    -0.38589522
O       3.01852398     7.91825102     1.42572702     0.10042527    -0.54412251    -0.08379408
O       2.97077002     3.25073500     1.49953301    -0.18821613    -0.72477497     0.68601634
O       0.04098398     7.90635897     1.40137598    -0.43242603     0.22625305    -0.63738057
O       5.85740001     3.28884100     1.45451500     0.71325179    -0.28069438     0.05528877
