# total energy = -4988.46146318 eV

CRYSTAL
PRIMVEC
        3.27536096     0.00000000     0.00000000
        0.00000000     3.79321737     0.00000000
        0.00000000    -0.00005985     4.56532830
PRIMCOORD
6 1
Ti      1.63768053     1.89657861     2.28266415     0.00000000     0.00000000     0.00000000
Ti      0.00000000     0.00000000     0.00000000     0.00000000     0.00000000     0.00000000
O       1.63768053     0.73923047     0.88971523     0.00000000    -0.46635998    -0.57880876
O       1.63768053     3.05392670     3.67561302     0.00000000     0.46635998     0.57880876
O       0.00000000     1.15732395     3.17238039     0.00000000     0.46615429    -0.57812176
O       0.00000000     2.63583327     1.39294791     0.00000000    -0.46615429     0.57812176
