# total energy = -19072.78076109 eV

CRYSTAL
PRIMVEC
        5.93400000     0.00000000     0.00000000
        0.00000000     9.29699974     0.00000000
        0.00000000     0.00000000     4.64899994
PRIMCOORD
22 1
Ti      4.51582402     6.79092599     2.46949703    -0.18213393     1.13379392    -1.06100494
Ti      4.36411002     2.30547298     2.21191301     0.52185469    -0.00167970     0.11852944
Ti      1.61348498     7.18991500     2.49103697    -0.24458579     1.47374968    -0.10234640
Ti      1.51897901     2.25856999     2.11650400    -0.85750770     0.30736650     0.07206239
Ti      3.01452298     4.71842202     4.56105799    -0.64143674    -0.01294474     0.23361849
Ti      2.94776002     0.20893500     0.10381002     1.23889706    -1.25376061    -0.50659210
Ti      5.72475702     4.44504799     4.39423899     1.64643892     0.02467077     0.50705618
Ti      0.00651301     9.14760999     0.10239601    -1.46250778    -1.10028986     0.21721459
O       4.68822801     5.64034600     0.93880299    -0.78433305    -1.46921297    -0.06475737
O       4.46370202     0.79853498     1.10510101     0.21137355     0.12723597    -0.41272829
O       1.55410098     0.41210700     1.33681101    -0.60150595     3.43866278    -0.52786722
O       4.47532201     8.31804702     3.88388198     0.37946823     2.00580394    -0.19797347
O       4.23829098     3.95110898     3.41583301     0.00075642    -0.22990787    -0.53250934
O       1.54869601     8.54968500     3.76049801    -0.39681033     0.55167950    -0.02429359
O       1.49364301     4.02389201     3.64122701    -0.04797680    -0.27206832     0.08771245
O       2.95390498     6.42360300     3.57990098    -0.27803483    -2.17347258     0.09326886
O       2.78128800     1.63508399     3.25433901     0.81592292    -1.21372749     1.78504662
O       0.15881498     6.21461698     3.38954999    -0.05838540    -0.66253779    -0.49085283
O       3.12803901     7.90212302     1.62964299    -0.37673772    -0.99078114    -0.96258744
O       2.93807602     3.04204898     1.14647400    -0.53810201     1.66009019    -0.60878140
O       5.92530297     7.90043102     1.34566901     0.44119787    -2.03621419     1.97798871
O       5.71874599     2.96196001     1.03813199     1.21414890     0.69354402     0.39979641
