# total energy = -19960.56072485 eV

CRYSTAL
PRIMVEC
        5.93400000     0.00000000     0.00000000
        0.00000000     9.29699974     0.00000000
        0.00000000     0.00000000     4.64899994
PRIMCOORD
24 1
Ti      4.49210302     6.84218098     2.26898399    -0.70871945     0.69104645     0.98382785
Ti      4.47581298     2.49355797     2.37425999    -0.41472218    -2.00417643    -0.26188598
Ti      1.51191502     6.84545601     2.13743798     0.47077791     1.03736878     1.52261943
Ti      1.46407798     2.36467199     2.38530699     0.50326072    -1.61713990    -0.12223029
Ti      2.92759402     4.62091698     0.06338602     1.04150645    -0.23781633    -1.07373602
Ti      2.94105502     9.24749902     0.06606302     1.62439915     1.05226318     0.09174445
Ti      0.01941398     4.65549401     4.59403901    -0.87164775    -0.62230670    -0.29134261
Ti      0.00914699     9.27687302     0.05238098    -1.21841693     0.59736467     0.13314308
O       4.44524400     5.56201300     0.84746202     0.04221367     0.02540919    -0.15880862
O       4.36151700     0.87458198     0.98315402     0.99137172     0.49239086     0.30006585
O       1.46445999     5.60343398     0.78813199     0.03750444    -0.09256720    -0.07772833
O       1.50075700     0.94225899     1.04462600    -0.59161826    -0.33302689    -0.32750673
O       4.42257701     8.39176099     3.79198299     0.65977823     0.00457888    -0.20589196
O       4.47783598     3.84533798     3.69823501    -0.74078703    -0.12607589     0.18503439
O       1.50116399     8.46805702     3.89632299    -1.29284037    -0.91590982    -1.44839114
O       1.47291201     3.80948400     3.67958400     0.44583485     0.39728264     0.81654076
O       2.92559998     6.07222502     3.16721400    -0.08881005    -0.34899370     0.33098492
O       2.96700302     1.55931702     3.28783202     0.11644659     0.18512747    -0.20905828
O       5.93077297     5.88538200     3.07038197     0.26423571     0.89915419     0.41876910
O       5.91343602     1.59230302     3.33152798    -0.00837949    -0.53765824    -0.19850055
O       2.97968602     7.70433598     1.34512100    -0.28970738     1.03570939     0.00741455
O       2.97643603     3.27127602     1.31903700    -0.06318360     0.19562194     0.47718073
O       5.89407802     7.85189499     1.47648200     0.50340702     0.42502151    -0.30568602
O       0.04239498     3.35837701     1.45383898    -0.41190322    -0.20266754    -0.58655832
