# total energy = -19891.50048785 eV

CRYSTAL
PRIMVEC
        8.03535576     0.00000000     0.00000000
        0.00002498     2.85068282     0.00000000
        0.00000000     0.00000000    12.78357329
PRIMCOORD
24 1
Ti      2.91244460     1.68931190     4.74261462    -0.25486507     0.40742256     1.36435408
Ti      5.12293581     1.16137064     8.04095905     0.25486507    -0.40742256    -1.36435408
Ti      6.92998542     1.16137156     1.64912114    -0.25392610    -0.40729657    -1.36442119
Ti      1.10539505     1.68931109    11.13445264     0.25392610     0.40729657     1.36442119
Ti      2.91243244     0.26397055     1.64917240    -0.25436550     0.40779614    -1.36411703
Ti      5.12294803     2.58671211    11.13440137     0.25436550    -0.40779614     1.36411703
Ti      1.10538283     0.26396957     8.04090778     0.25368287     0.40799206    -1.36409183
Ti      6.92999764     2.58671308     4.74266589    -0.25368287    -0.40799206     1.36409183
O       2.54324950     1.00377379     6.52335975     4.79752576    -0.13765100     0.27376577
O       5.49213097     1.84690881     6.26021392    -4.79752576     0.13765100    -0.27376577
O       1.47449270     1.00378537     0.13161407    -4.79752910    -0.13790014     0.27246016
O       6.56088782     1.84689723    12.65195921     4.79752910     0.13790014    -0.27246016
O       5.49211875     0.42156734     0.13157256    -4.79863030     0.13782198     0.27298004
O       2.54326172     2.42911520    12.65200073     4.79863030    -0.13782198    -0.27298004
O       6.56087561     0.42155582     6.52340121     4.79624637     0.13828812     0.27192254
O       1.47450476     2.42912678     6.26017246    -4.79624637    -0.13828812    -0.27192254
O       0.29195806     1.73394688     3.45316213    -0.18952328     0.17471578     3.18108211
O       7.74342241     1.11673566     9.33041149     0.18952328    -0.17471578    -3.18108211
O       4.30964657     1.11670924     2.93866532    -0.18874964    -0.17479831    -3.18275076
O       3.72573391     1.73397336     9.84490813     0.18874964     0.17479831     3.18275076
O       0.29194584     0.30860547     2.93862452    -0.18928597     0.17520352    -3.18275564
O       7.74343463     2.54207713     9.84494894     0.18928597    -0.17520352     3.18275564
O       3.72572174     0.30863190     9.33045224     0.18844548     0.17514515    -3.18020871
O       4.30965873     2.54205065     3.45312132    -0.18844548    -0.17514515     3.18020871
