# total energy = -19072.50476161 eV

CRYSTAL
PRIMVEC
        5.93400000     0.00000000     0.00000000
        0.00000000     9.29699974     0.00000000
        0.00000000     0.00000000     4.64899994
PRIMCOORD
22 1
Ti      4.54565898     7.04585998     2.36943199    -2.15202237    -1.14674226     0.69738165
Ti      4.49041902     2.42754899     2.11257501    -0.89760587    -1.32896078     0.26752878
Ti      1.46381598     7.30394899     2.64950699     2.40166887    -1.87749222     0.87087899
Ti      1.54123398     2.46898701     2.15984102     0.08042285     0.85149723     0.13650866
Ti      3.02196501     4.60017101     4.46636997    -0.90528036     1.60053005     0.12430054
Ti      2.95418899     0.15400402     0.02012498     0.92331845     0.01633217     0.23786055
Ti      5.72277700     4.48679098     4.47533799    -0.39253972    -0.00824502    -0.92150763
Ti      0.00836301     9.05939302     0.38072901    -0.16182478     0.57034468    -0.71759156
O       4.43454197     5.41485701     0.96144500    -0.27036085     0.34424436    -0.16641523
O       4.44336600     0.46645800     1.19594101     0.41157540     2.36186689     0.77527145
O       1.48360102     0.81833102     1.10230299    -0.42697632     0.53501643    -0.56087891
O       4.54912102     8.29007402     3.92985298    -0.29899833     0.79917706    -1.37237516
O       4.22469203     3.86656201     3.39835497     1.56260909    -0.91749645    -0.54765675
O       1.67438201     8.20072398     4.23695200    -0.73645086     0.61925660    -2.15636137
O       1.34005402     3.95697300     3.58647299     1.56595076    -0.81733163    -0.50707958
O       2.99109498     6.12251897     3.17781501    -0.74580428    -0.28072060     0.36527908
O       2.89989498     1.62815600     3.05641302     0.50176254    -1.65068818     2.22641058
O       0.03501698     6.10481699     3.43248299    -0.21456250     0.52723652    -0.89833375
O       2.83793298     8.01009602     1.65296298     0.98301949    -0.46105142    -0.02292474
O       3.10658601     3.10669798     1.05132602    -1.35879870     0.20746393    -0.15146657
O       0.16368098     7.48952002     1.25582498    -0.43583403    -0.49371113     1.44993971
O       5.82112401     2.85629300     0.87882302     0.56673228     0.54947400     0.87123174
