# total energy = -4988.15729052 eV

CRYSTAL
PRIMVEC
        3.99607653     0.00000000     0.00000000
        1.35705878     3.75859270     0.00000000
       -2.67660411    -1.87932195     5.18224719
PRIMCOORD
6 1
Ti      1.01767888     2.81908870     1.29556185     0.00002031    -0.00002031     0.00000000
Ti      1.65885163    -0.93981843     3.88668544    -0.00002031     0.00002031     0.00000000
O       0.33930632     0.93964300     0.84414577    -0.00061372    -0.00074742    -1.45994979
O       2.33722399     0.93962713     4.33810163     0.00061372     0.00074742     1.45994979
O      -0.33927392    -0.93962029     3.43526937    -0.00074742    -0.00061372    -1.45994979
O       3.01580417     2.81889038     1.74697804     0.00074742     0.00061372     1.45994979
