# total energy = -4986.46061984 eV

CRYSTAL
PRIMVEC
        3.82218856     0.00000000     0.00000000
        1.79867034     3.37252285     0.00000000
       -2.81046536    -1.68628297     5.04780954
PRIMCOORD
6 1
Ti      1.34891258     2.52952202     1.26195205     0.00049982    -0.00049982     0.00000000
Ti      1.46148083    -0.84328227     3.78585687    -0.00049982     0.00049982     0.00000000
O       0.44970719     0.84312642     0.82224682     0.00000900    -0.00004294    -2.81163605
O       2.36068604     0.84311332     4.22556215    -0.00000900     0.00004294     2.81163605
O      -0.44967087    -0.84310458     3.34615159    -0.00004294     0.00000900    -2.81163605
O       3.26006403     2.52934423     1.70165733     0.00004294    -0.00000900     2.81163605
