# total energy = -4986.62013971 eV

CRYSTAL
PRIMVEC
        4.48296085     0.00000000     0.00000000
       -0.00000769     3.31349299     0.00000000
       -2.24150786    -1.65678984     5.08951905
PRIMCOORD
6 1
Ti     -0.00019360     2.48524175     1.27237946    -0.00369776    -0.00451486     7.28087397
Ti      2.24163868    -0.82853860     3.81713883     0.00369776     0.00451486    -7.28087397
O       0.00004676     0.82836540     0.82904092     0.00172341     0.00451460    -2.24564476
O       2.24139816     0.82833769     4.26047737    -0.00172341    -0.00451460     2.24564476
O      -0.00002007    -0.82836222     3.37380028    -0.00204531    -0.00018383    -1.39384233
O       2.24146493     2.48506521     1.71571806     0.00204531     0.00018383     1.39384233
