# total energy = -4990.60588800 eV

CRYSTAL
PRIMVEC
        3.78531473     0.00000000     0.00000000
        0.18913942     3.78058644     0.00000000
       -1.98726068    -1.89032519     4.83241482
PRIMCOORD
6 1
Ti      0.14170165     2.83558339     1.20810357    -0.00007585     0.00007585     0.00000000
Ti      1.84549133    -0.94532260     3.62431098     0.00007585    -0.00007585     0.00000000
O       0.04732468     0.94514043     0.78716086    -0.00005502     0.00016172     0.05501211
O       1.93986815     0.94512027     4.04525375     0.00005502    -0.00016172    -0.05501211
O      -0.04730601    -0.94512267     3.20336827     0.00016172    -0.00005502     0.05501211
O       2.03449883     2.83538331     1.62904639    -0.00016172     0.00005502    -0.05501211
