# total energy = -19915.11278620 eV

CRYSTAL
PRIMVEC
        4.47702592     0.00000000     0.00000000
        0.00002454     4.76490945     0.00000000
        0.00000000     0.00000000     8.01289195
PRIMCOORD
24 1
Ti      1.62272110     2.82368093     2.97272582    -0.17572982     1.63510009    -2.33468004
Ti      2.85432935     1.94122856     5.04016636     0.17572982    -1.63510009     2.33468004
Ti      3.86115569     1.94123020     1.03368825    -0.17102573    -1.63453625     2.33968418
Ti      0.61589477     2.82367948     6.97920402     0.17102573     1.63453625    -2.33968418
Ti      1.62270893     0.44122630     1.03372038    -0.17622656     1.63458278     2.33879535
Ti      2.85434153     4.32368333     6.97917189     0.17622656    -1.63458278    -2.33879535
Ti      0.61588259     0.44122452     5.04013423     0.17046960     1.63428505     2.33543645
Ti      3.86116786     4.32368511     2.97275795    -0.17046960    -1.63428505    -2.33543645
O       1.41701561     1.67780566     4.08891751    -4.06864499    -3.45539758    -0.64050163
O       3.06003485     3.08710388     3.92397467     4.06864499     3.45539758     0.64050163
O       0.82154081     1.67782485     0.08249722     4.06857249    -3.45612289    -0.63942845
O       3.65550969     3.08708469     7.93039473    -4.06857249     3.45612289     0.63942845
O       3.06002267     0.70464911     0.08247122     4.06948112     3.45538061    -0.64108193
O       1.41702779     4.06026039     7.93042073    -4.06948112    -3.45538061     0.64108193
O       3.65549752     0.70462992     4.08894351    -4.06774125     3.45614089    -0.63889649
O       0.82155289     4.06027962     3.92394867     4.06774125    -3.45614089     0.63889649
O       0.16267561     2.89828804     2.16448207    -1.46776698     0.85127560    -1.00490679
O       4.31437484     1.86662145     5.84841011     1.46776698    -0.85127560     1.00490679
O       2.40119216     1.86657704     1.84198949    -1.46801972    -0.85175074     1.00735036
O       2.07585829     2.89833245     6.17090255     1.46801972     0.85175074    -1.00735036
O       0.16266344     0.51583328     1.84196391    -1.46765282     0.85096373     1.00665180
O       4.31438702     4.24907622     6.17092814     1.46765282    -0.85096373    -1.00665180
O       2.07584612     0.51587768     5.84843565     1.46808682     0.85204796     1.00553619
O       2.40120434     4.24903181     2.16445648    -1.46808682    -0.85204796    -1.00553619
