# total energy = -19070.22718055 eV

CRYSTAL
PRIMVEC
        5.93400000     0.00000000     0.00000000
        0.00000000     9.29699974     0.00000000
        0.00000000     0.00000000     4.64899994
PRIMCOORD
22 1
Ti      4.37130799     6.65573501     2.65801002     0.22294018     2.10631894    -2.54132404
Ti      4.36891701     2.43963000     2.15094899     0.37052233    -1.24114832     0.38819070
Ti      1.48316202     7.28103101     2.72135201    -0.57676036     2.19196627    -1.79357678
Ti      1.68926899     2.29458098     1.95782501    -1.94679710     1.00923961     1.68120847
Ti      2.93715700     4.72881099     4.48007201     1.77568241    -2.95382556     1.34017671
Ti      2.96101702     0.10676802     0.33958902     0.79086854    -0.95529579    -0.15102383
Ti      0.08235099     4.36618799     3.94610698     0.43798193    -4.61984961     0.41051354
Ti      5.80519498     9.26679801     0.19729898    -0.24443872    -2.39864139     1.24466405
O       3.90353398     5.68689100     1.17750902     0.39697436    -0.81511791    -0.38548718
O       4.53655301     0.65955202     1.38457698     1.07389722     1.48615140    -1.25018703
O       1.45399498     0.53741998     1.54754902    -0.66489164     0.61939981    -2.30894971
O       4.39470900     8.33072902     3.98139998     1.16821432     1.34353663     0.26830834
O       4.21104798     4.06565902     2.97102000     1.73328876     0.81891132     2.82023356
O       1.56279901     8.63948198     3.87806600    -1.25086915    -0.02152760     0.43002153
O       1.82805900     3.87768299     3.07811701    -2.70555563     0.73727465     1.21122015
O       2.77684598     6.24834002     3.60541801    -0.41320446     1.52428884    -0.77389205
O       2.96125901     1.44688898     3.28913501     1.25177238     1.38185456    -0.06896730
O       0.04538499     6.12460102     3.69590102     0.64122257     2.02926809    -1.27632334
O       3.20593798     7.99502500     1.60518801    -2.08997186    -1.40650271     1.23943031
O       3.02122299     2.94026200     0.88386402     0.81682435     0.68325189    -0.87187092
O       0.08468900     7.83668400     1.54929700     0.06209988    -1.76730935     0.46127510
O       0.23478600     3.16104300     0.81658500    -0.84980005     0.24775622    -0.07364054
