# total energy = -19898.48205371 eV

CRYSTAL
PRIMVEC
        8.65903419     0.00000000     0.00000000
        0.00002836     3.94964170     0.00000000
        0.00000000     0.00000000    13.17837326
PRIMCOORD
24 1
Ti      3.13850008     2.34055403     4.88908249     0.19681725    -0.28470324     2.79164726
Ti      5.52056209     1.60908773     8.28929096    -0.19681725     0.28470324    -2.79164726
Ti      7.46786897     1.60908908     1.70005153     0.18527171     0.28438186    -2.79287650
Ti      1.19119320     2.34055281    11.47832205    -0.18527171    -0.28438186     2.79287650
Ti      3.13848610     0.36573324     1.70010439     0.19681725    -0.28470324    -2.79164726
Ti      5.52057607     3.58390859    11.47826919    -0.19681725     0.28470324     2.79164726
Ti      1.19117921     0.36573177     8.28923810    -0.18527171    -0.28438186    -2.79287650
Ti      7.46788296     3.58391006     4.88913536     0.18527171     0.28438186     2.79287650
O       2.74064888     1.39073597     6.72482305     1.43254208     0.98135907    -2.29324592
O       5.91841329     2.55890573     6.45355040    -1.43254208    -0.98135907     2.29324592
O       1.58893861     1.39075191     0.13567873    -1.43211116     0.98143132    -2.29307829
O       7.07012362     2.55888986    13.04269435     1.43211116    -0.98143132     2.29307829
O       5.91839937     0.58408488     0.13563598    -1.43254208    -0.98135907    -2.29324592
O       2.74066280     3.36555689    13.04273709     1.43254208     0.98135907     2.29324592
O       7.07010970     0.58406895     6.72486580     1.43211116    -0.98143132    -2.29307829
O       1.58895241     3.36557282     6.45350765    -1.43211116     0.98143132     2.29307829
O       0.31461986     2.40239596     3.55980742    -2.04061823     0.60120565     0.04933666
O       8.34444231     1.54724574     9.61856603     2.04061823    -0.60120565    -0.04933666
O       4.64414797     1.54720895     3.02942120    -2.04117359    -0.60105626    -0.04950841
O       4.01491420     2.40243282    10.14895206     2.04117359     0.60105626     0.04950841
O       0.31460593     0.42757511     3.02937915    -2.04061823     0.60120565    -0.04933666
O       8.34445624     3.52206666    10.14899411     2.04061823    -0.60120565     0.04933666
O       4.01490028     0.42761191     9.61860802     2.04117359     0.60105626    -0.04950841
O       4.64416189     3.52202986     3.55976537    -2.04117359    -0.60105626     0.04950841
