# total energy = -4974.15225272 eV

CRYSTAL
PRIMVEC
        5.38906078     0.00000000     0.00000000
       -0.00000763     2.90180232     0.00000000
       -2.69456032    -1.45096645     5.81372810
PRIMCOORD
6 1
Ti     -0.00023066     2.17645173     1.45343180    -0.00735002    -0.01003810    16.11959304
Ti      2.69472310    -0.72561569     4.36029585     0.00735002     0.01003810   -16.11959304
O       0.00005720     0.72543921     0.94700874     0.00662933     0.01061455   -10.23272853
O       2.69443511     0.72539671     4.86671902    -0.00662933    -0.01061455    10.23272853
O      -0.00002201    -0.72545889     3.85387279    -0.00211345    -0.00016404    -2.20080599
O       2.69451421     2.17629481     1.95985497     0.00211345     0.00016404     2.20080599
