# total energy = -19073.55659922 eV

CRYSTAL
PRIMVEC
        7.60600008     0.00000000     0.00000000
        0.00000000     7.60600008     0.00000000
       -1.89786986    -1.89786986     4.85670466
PRIMCOORD
22 1
Ti      3.76414197     6.63915001     1.05469101     0.52187654    -2.38972352     0.60507876
Ti      3.67321800     2.67667902     1.37473301    -0.16727732     1.06758953     0.25674686
Ti      0.05691698     6.96832700     1.09335402    -0.78948580    -0.81401516     0.62746947
Ti     -0.29300899     2.99753099     1.40088702     1.07218641     1.00976052    -0.11871225
Ti      5.58607221     2.96174823     3.75612182    -1.64043487     0.37891467    -0.33501692
Ti      5.87925222    -0.85019675     3.51211184     1.56442867    -1.08198977    -0.79485221
Ti      1.68405622     2.73943823     3.76791183     1.70756460    -0.64761356    -0.01133548
Ti      2.06247421    -0.98285779     3.51198182    -0.59457785     1.28636941     0.24361443
O       3.59107302     4.73208898     0.82124399    -0.42914813    -1.09598558    -0.30784884
O       4.01999399     0.74065997     1.15359302    -0.48258673     5.25051445    -0.15397597
O      -0.07469803     4.71217000     0.71775501     0.35263336    -0.13707353     0.74756729
O       7.36281599     1.43695098     0.52514799    -0.17864597    -2.63477957    -0.04145880
O       5.74620225     4.78121620     4.08231683     0.28566278     2.91104625    -0.15412252
O       0.21699522    -0.67748378     3.30653081    -3.89008798     0.36879737    -0.41384980
O       1.73644921     4.93291624     3.99934179     0.07331246    -2.70957350     0.48918187
O       2.11635720     0.84224020     3.98844079    -0.28015419     0.87768316     1.63729170
O       3.69439525     3.00277820     3.45069680    -0.01383357    -0.90963581    -1.25569383
O      -0.15570776     2.82790222     3.30379380    -1.19492578    -0.49698620     0.85781315
O       5.70214099     6.49435500     1.57559102     0.55215078     0.62057943     0.84186716
O       5.45645098     3.24671198     1.63190702     0.31090408    -1.29728401     0.81263936
O       1.84394199     6.53297901     1.66889900     1.10207884     0.58155007    -1.76148014
O       1.65717201     2.80833001     1.88015698     2.11835968    -0.13814440    -1.77092355
