# total energy = -19945.34228273 eV

CRYSTAL
PRIMVEC
        5.56856199     0.00000000     0.00000000
        2.27950068     5.47072796     0.00000000
        0.00000000     0.00000000    10.18015557
PRIMCOORD
24 1
Ti      3.36916593     3.24194843     3.77676510     1.32126109    -3.15582307     1.03025222
Ti      4.47889683     2.22877969     6.40339057    -1.32126109     3.15582307    -1.03025222
Ti      5.73119654     2.22878155     1.31327204    -3.04478274    -0.44942720     0.87335445
Ti      2.11686626     3.24194678     8.86688370     3.04478274     0.44942720    -0.87335445
Ti      2.22941570     0.50658442     1.31331285     1.32126109    -3.15582307    -1.03025222
Ti      5.61864709     4.96414385     8.86684289    -1.32126109     3.15582307     1.03025222
Ti      0.97711590     0.50658241     6.40334971     3.04478274     0.44942720     0.87335445
Ti      6.87094689     4.96414587     3.77680591    -3.04478274    -0.44942720    -0.87335445
O       2.56513596     1.92633637     5.19485548     1.20058375     1.82613210    -1.03955859
O       5.28292675     3.54439175     4.98530020    -1.20058375    -1.82613210     1.03955859
O       1.82448869     1.92635848     0.10481041     0.42729256    -0.81837910     0.93639586
O       6.02357414     3.54436973    10.07534493    -0.42729256     0.81837910    -0.93639586
O       4.14317650     0.80902764     0.10477736    -1.20058375    -1.82613210    -1.03955859
O       3.70488626     4.66170047    10.07537798     1.20058375     1.82613210     1.03955859
O       4.88382382     0.80900558     5.19488847    -0.42729256     0.81837910     0.93639586
O       2.96423884     4.66172261     4.98526715     0.42729256    -0.81837910    -0.93639586
O       1.58884029     3.32760703     2.74991401     0.47957777     1.37943567     1.28795270
O       6.25922241     2.14312110     7.43024167    -0.47957777    -1.37943567    -1.28795270
O       3.87956871     2.14307019     2.34019621     1.39476485     0.81378171    -0.00448375
O       3.96849399     3.32765794     7.83995930    -1.39476485    -0.81378171     0.00448375
O       0.44909003     0.59224286     2.34016366     0.47957777     1.37943567    -1.28795270
O       7.39897273     4.87848525     7.83999179    -0.47957777    -1.37943567     1.28795270
O       2.82874374     0.59229382     7.43027410    -1.39476485    -0.81378171    -0.00448375
O       5.01931896     4.87843430     2.74988152     1.39476485     0.81378171     0.00448375
