# total energy = -4938.90983851 eV

CRYSTAL
PRIMVEC
        4.92888018     0.00000000     0.00000000
       -0.00000681     2.37316438     0.00000000
       -2.46446771    -1.18664849     5.30999042
PRIMCOORD
6 1
Ti     -0.00021057     1.77995198     1.32749733    -0.02900643    -0.02571593    49.98306952
Ti      2.46461618    -0.59343624     3.98249243     0.02900643     0.02571593   -49.98306952
O       0.00005245     0.59327971     0.86495392     0.02793427     0.02544699   -40.73456865
O       2.46435301     0.59323592     4.44503589    -0.02793427    -0.02544699    40.73456865
O      -0.00002013    -0.59330670     3.51994903    -0.00115803     0.00058878    -0.73999333
O       2.46442555     1.77982233     1.79004078     0.00115803    -0.00058878     0.73999333
