# total energy = -19961.22622907 eV

CRYSTAL
PRIMVEC
        7.60600008     0.00000000     0.00000000
        0.00000000     7.60600008     0.00000000
       -1.89786986    -1.89786986     4.85670466
PRIMCOORD
24 1
Ti      3.74803498     6.69225401     1.26557100     0.11849216     0.49403508     1.47540059
Ti      3.76383002     2.95933699     1.20110297     0.16063127    -0.24154700     0.04614566
Ti      0.03604703     6.52191699     1.18507398     0.04364012     0.38602557    -0.05797248
Ti      0.04281399     2.77133100     1.13751201    -0.12854132    -0.24266492    -0.41540146
Ti      5.71473324     2.83756124     3.53145480     0.14453822    -0.74399731     0.40093232
Ti      5.70968023    -1.04569579     3.58654882    -0.26958001     0.59429272     0.57851797
Ti      1.90158924     3.01467025     3.74284079     0.16737836    -1.91624030    -1.70664903
Ti      1.81657221    -0.94934579     3.72211281     0.53962025     1.43256059    -0.66461936
O       3.75598502     4.86673903     0.94841502     0.12449749    -1.01865062    -1.12889725
O       3.73984602     1.09027802     0.82052901    -0.03934612    -1.25099539     0.00261893
O       0.07654702     4.71087399     0.72295900    -0.08929573    -0.48082347    -0.42770780
O       0.26069700     0.86263798     0.74989602    -0.72539332     0.10123671     0.11321471
O       5.81002123     4.68425421     4.04106879    -0.40316198     0.29859415     0.10470204
O       5.74411422     0.87725724     3.93908681     0.02091233     0.57055140     0.38553809
O       1.74068925     4.82639222     4.14022682     0.24294877     0.12901518     0.45176202
O       1.87259123     1.11260221     4.02970280    -0.32705601    -0.63510925     1.00864106
O       3.79518420     3.00766823     3.32470080    -0.06347002     0.00491492    -0.76798134
O       3.81890124    -0.92871978     3.28912681    -0.88166271     0.00364480    -0.22002892
O      -0.07330475     2.91115725     3.06281881     0.86392261    -0.04527920     1.07267518
O       0.01229924    -1.03322176     3.21470480     0.04553323     0.51629468    -0.24531059
O       5.66466699     6.46665998     1.62607199     0.61490295     0.71198321    -0.30192039
O       5.75152900     2.83639302     1.43454899    -1.31753634    -0.05087135     0.89282027
O       1.88762600     6.38224002     1.72510799     0.35124342     1.02225788    -0.04396228
O       1.89429400     2.87284598     1.76307201     0.80678239     0.36077167    -0.55251768
