# total energy = -19076.18012366 eV

CRYSTAL
PRIMVEC
        7.60600008     0.00000000     0.00000000
        0.00000000     7.60600008     0.00000000
       -1.89786986    -1.89786986     4.85670466
PRIMCOORD
22 1
Ti      3.77764102     6.56024302     1.26224602    -0.40055462     0.87483617    -1.25819731
Ti      3.81925499     2.83533202     1.19974500     0.92870852    -0.34400782     0.63681004
Ti      0.34768602     6.76291701     0.98694801    -0.43020845     0.50891252     0.54970772
Ti      0.07244400     2.94729302     1.10677702    -1.18362449    -0.82691568     0.33095278
Ti      5.67403422     2.91471221     3.58283384    -0.13375912    -0.15354145    -0.61657648
Ti      6.00190223    -0.83860677     3.54841482     0.46003429    -0.89030599     1.23691422
Ti      1.84971622     2.70693621     3.68021282     0.22976466     0.95806538    -0.74870423
Ti      1.34322321    -1.10512779     3.92036383     0.16247630     0.18113506    -1.11959629
O       3.90111601     4.76741902     0.88961803    -0.62696168    -1.65301709    -0.95234956
O       3.79829200     0.89095002     0.80542301    -0.29466267     0.42642739     1.91452306
O      -0.06990998     4.80463701     0.74576802     0.55265883     0.39257675    -0.13172615
O      -0.15894701     1.01035098     0.62181899     0.73884868    -0.51703747     1.24293189
O       5.65499924     4.82311921     4.00128980     0.16195848    -0.22930263    -1.20081155
O       5.62253622     0.94717420     3.92250779     0.54620202     1.13856486     0.39997664
O       1.93823222     4.72704121     4.14619483    -0.43249622    -0.41759899     0.12932319
O       1.93046120     0.85747024     4.05429780    -0.67220977     0.57369895     0.12845545
O       3.78202324     2.85637121     3.15138880    -0.43114665    -0.07219403     0.46814947
O      -0.00643580     2.95783121     3.19210280     0.67874423    -0.41086655     0.30150644
O       5.51993198     6.63210000     1.80598601     0.31734161     0.18984544    -0.18140451
O       5.72817900     2.79309701     1.59865902    -0.42375832     0.38311328     0.06068577
O       1.97789798     6.57029400     2.12468698     0.12468029     0.08703316    -1.25793351
O       1.88071500     2.87134698     1.59693602     0.12796437    -0.19942126     0.06736267
