# total energy = -19960.17235388 eV

CRYSTAL
PRIMVEC
        5.93400000     0.00000000     0.00000000
        0.00000000     9.29699974     0.00000000
        0.00000000     0.00000000     4.64899994
PRIMCOORD
24 1
Ti      4.46844398     6.82627598     2.31652199     0.58996426     1.92810929     0.41507879
Ti      4.49137302     2.46139998     2.38498901    -1.31740367    -2.54310633    -0.15664452
Ti      1.52467698     6.82052202     2.13318298    -0.56119541     2.48473739     1.38159025
Ti      1.45696499     2.39752098     2.35461503     1.32557001    -2.64142124    -0.08677039
Ti      2.90484099     4.64245302     0.02337101     1.37328919    -1.32149944    -0.31055055
Ti      2.94532802     9.22259801     0.07374402     1.38088166     1.45300215    -0.03940320
Ti      5.93314602     4.65228502     4.63045398    -1.08827278    -0.73557540    -0.54252045
Ti      0.00395798     9.29229800     0.03245598    -1.33232301     0.77604330     0.60512581
O       4.45771099     5.55399999     0.83537799     0.13443018     0.06617971     0.10190263
O       4.40309599     0.84006402     0.92356602     0.49464726     1.40890129     0.87682749
O       1.48512500     5.64798399     0.78330801    -0.24643904    -0.71978497    -0.63957989
O       1.50992801     0.91821201     0.98394599    -0.51563699     0.66672869     0.63038639
O       4.41123801     8.36039999     3.81818902     0.53268649    -0.55959207    -1.04858599
O       4.49606698     3.84205798     3.69440001    -0.38957550     0.25197437     0.63861830
O       1.45780601     8.51249802     3.93820599    -0.26493814    -2.03990064    -2.64456776
O       1.51385202     3.80385398     3.68039200    -0.11792909     0.75029909     1.34318104
O       2.93736502     6.03402302     3.15378100    -0.29407466    -0.03996627     0.22443142
O       3.02021899     1.60411902     3.21389199     0.08798524    -0.46233414     0.39704867
O       0.02271001     5.93018098     3.09809001     0.23878898     0.38455696     0.45557497
O       5.92416202     1.56267301     3.33018398    -0.18160814    -0.20811288    -0.36438279
O       2.98431198     7.78396599     1.31102103    -0.37056244    -0.69374405     1.47423176
O       2.90758499     3.29829999     1.40012601     0.69273361     1.14519343    -0.99168000
O       5.87114697     7.88203201     1.48762002     0.62720825    -0.55544668     0.20390398
O       0.07833601     3.31131500     1.50646598    -0.79822627     1.20475820    -1.92321622
