# total energy = -4990.12087820 eV

CRYSTAL
PRIMVEC
        3.95337236     0.00000000     0.00000000
       -0.00000798     3.57686110     0.00000000
       -1.97671407    -1.78846645     4.81716940
PRIMCOORD
6 1
Ti     -0.00017281     2.68278023     1.20429211    -0.00052888    -0.00281125     2.62492812
Ti      1.97682280    -0.89438547     3.61287671     0.00052888     0.00281125    -2.62492812
O       0.00004017     0.89420854     0.78467745     0.00037615     0.00130355    -0.10581688
O       1.97660966     0.89418611     4.03249148    -0.00037615    -0.00130355     0.10581688
O      -0.00002027    -0.89419604     3.19326204    -0.00070294    -0.00021983     0.03544113
O       1.97667010     2.68259063     1.62390688     0.00070294     0.00021983    -0.03544113
