# total energy = -4964.94914753 eV

CRYSTAL
PRIMVEC
        4.96881293     0.00000000     0.00000000
       -0.00000704     2.67551498     0.00000000
       -2.48443405    -1.33781769     5.36036399
PRIMCOORD
6 1
Ti     -0.00021267     2.00672843     1.34009078    -0.01513583    -0.01810931    27.10478167
Ti      2.48458414    -0.66903098     4.02027278     0.01513583     0.01810931   -27.10478167
O       0.00005274     0.66886827     0.87315943     0.01332963     0.01608688   -18.91829258
O       2.48431861     0.66882907     4.48720424    -0.01332963    -0.01608688    18.91829258
O      -0.00002029    -0.66888640     3.55334142    -0.00183808     0.00003137    -1.62138145
O       2.48439154     2.00658375     1.80702224     0.00183808    -0.00003137     1.62138145
