# total energy = -19958.43525658 eV

CRYSTAL
PRIMVEC
        7.60600008     0.00000000     0.00000000
        0.00000000     7.60600008     0.00000000
       -1.89786986    -1.89786986     4.85670466
PRIMCOORD
24 1
Ti      3.97601502     6.57655099     1.10607502    -1.91273228    -0.62830148     0.46748484
Ti      3.95080798     2.53075702     1.14525498    -2.35575023     1.56529693    -0.01252770
Ti     -0.07477502     6.67866299     1.22132897     2.72900102     2.12657667     0.29900835
Ti     -0.05628700     3.01167801     1.35254101     1.43337126    -3.19692525     0.48122867
Ti      5.54874124     2.88190825     3.72779782    -0.50411381     0.45785065    -1.26043623
Ti      5.65976622    -0.75538576     3.66216581     2.08538732    -0.67388716     2.88015674
Ti      1.78860720     2.82469524     3.68472279     0.94354353    -0.91498396    -0.56802272
Ti      2.07300621    -0.99405978     3.47827280    -2.16810206     0.48927031    -0.57413243
O       3.77401198     4.76449299     0.87522901     0.77932557     0.07773888    -1.15452859
O       4.23826002     0.81076098     0.65927997    -0.22510197    -0.56127151     0.04951227
O      -0.25533199     4.84586801     0.92839899     0.60500728     0.13985238    -1.34815073
O      -0.26031298     1.20573200     0.88384301     0.84628252    -1.24498646    -0.94910174
O       5.66539021     4.94387524     4.02868583    -0.32184079    -1.75968345     1.51118316
O       5.31848621     1.10838625     3.95736882     1.41361027     0.30024454     1.34222845
O       1.90134423     4.73423024     3.81830782     0.38959015    -0.95945147     1.38949151
O       1.97996325     0.82700122     4.05620882    -0.20211449     0.97733504     0.62350355
O       3.59348824     2.68955623     3.05726383     3.12506032     0.92554606     1.64726475
O       3.93222825    -0.81496678     3.15403781    -1.64917483    -0.60551302    -1.10972736
O      -0.07271880     2.64064321     3.39797280    -0.99348929     1.11360407    -1.05630882
O       0.13376924    -0.92515778     3.38099881    -0.65280385     0.43017889    -1.35328728
O       5.83258101     6.72380298     1.83965100    -0.95405446    -0.25283955    -2.43476721
O       5.66293499     2.89364000     1.62696001     0.39496427     0.81498755     1.58583722
O       1.98065398     6.63228098     1.48225098     0.01999368     0.43609962     0.59922538
O       1.93026901     2.60719699     1.66780000    -2.82585888     0.94326174    -1.05513433
