# total energy = -19516.97414875 eV

CRYSTAL
PRIMVEC
        5.93400000     0.00000000     0.00000000
        0.00000000     9.29699974     0.00000000
        0.00000000     0.00000000     4.64899994
PRIMCOORD
23 1
Ti      4.48027601     7.16701898     2.13644398     0.41334792    -0.57396814     0.71471038
Ti      4.45940600     2.29333000     2.27431899    -0.49044839     0.33702418     0.80491063
Ti      1.41889301     6.98257102     2.27041298    -1.31092268    -0.83492030     1.05002658
Ti      1.45173698     2.36998397     2.36371502     0.60227754    -0.15293827     0.13599624
Ti      2.90795599     4.61198400     0.23854199    -1.20685159    -1.20858400    -0.58029743
Ti      3.01378001     0.02363099     0.01418999     0.02704416     1.12457214     0.02947617
Ti      5.86200300     4.60073401     0.08603401     0.00436342     0.60296222    -2.16098884
Ti      0.12005201     9.24199098     4.44403499     0.10820903     0.54361883     1.04359316
O       4.30984400     5.50814900     0.98178398     1.31900701     1.34000110     0.23318732
O       4.53486297     0.78792699     0.96025001     0.03259672     0.20446911    -0.13810763
O       1.32274299     5.53507598     1.07165003     1.64375468    -0.65600410    -0.83043526
O       1.40701097     0.89066098     0.93826000     0.68809971    -0.45853585    -0.59685714
O       4.51032799     8.35885299     3.69611100    -0.43695812    -0.10617349    -0.74707750
O       4.42213700     3.62364600     3.69334197     0.04104948     1.19822888     1.35887686
O       1.74301001     8.24464802     3.72160300    -1.15213695     0.57682592    -0.24134337
O       1.54368502     3.84126898     3.79198897    -0.64236568    -0.18313897    -0.10780280
O       2.91187402     1.44802099     3.21343599     0.58688357    -0.61074084     0.32032641
O       0.05546598     6.09457402     3.37814098    -0.22722364     0.44142310    -0.86205984
O       0.08372701     1.44186899     3.28368798    -0.92475442    -0.44391475    -0.12356881
O       2.92305299     7.82526701     1.28159798     0.78493520    -0.58947961     1.31732962
O       2.84546698     3.50781402     1.63666501     0.95667853    -1.78151496    -0.52163409
O       0.06269200     7.61581701     1.24176300    -0.39589424     2.19021175    -0.67373906
O       0.01371500     3.27880002     1.40250101    -0.42069177    -0.95942421     0.57547866
