# total energy = -19519.35003574 eV

CRYSTAL
PRIMVEC
        7.60600008     0.00000000     0.00000000
        0.00000000     7.60600008     0.00000000
       -1.89786986    -1.89786986     4.85670466
PRIMCOORD
23 1
Ti      3.72125502     6.63637802     1.25910498     0.06145864     0.45948510     0.02324638
Ti      3.79920198     2.82741299     1.20079298    -0.22933272    -0.52078048     0.12062284
Ti     -0.11269401     6.66495503     1.14381700     0.49976942    -0.16725315     0.13106563
Ti     -0.02314002     2.80948600     1.21014201     0.40060399     0.25542994    -0.48161691
Ti      5.68831825     2.80227025     3.64514583    -0.28527197     0.40383098     0.23338143
Ti      5.76422724    -0.94990576     3.62617282    -0.63383630    -0.16719890    -0.22558019
Ti      2.08003125     2.88501822     3.67777681    -0.65561329    -0.11996566     0.07969729
Ti      1.84099321    -0.95688577     3.59366583     1.00879095    -0.00006813     1.03234432
O       3.89826999     4.72632100     0.82053002    -0.08890749     0.27100234     0.08581986
O       3.49923500     0.98376099     0.81657098     0.51363461    -0.09650665     0.02518576
O      -0.17434300     4.77228898     0.72180401    -0.05074768    -0.02059814     1.12710982
O       0.15791099     0.89232498     0.69071802    -0.21524384     0.47962533     0.67404091
O       5.86617721     4.71901121     3.99741579     0.15100429     0.06136608    -0.35602567
O       5.78430825     0.94021023     4.16727682     0.01381223     0.18889671    -1.50464741
O       1.83550924     4.74114325     4.14357280    -0.19565794    -0.08929085    -0.56542308
O       2.06629121     0.94219523     4.07026382    -0.38696017     0.32199479    -0.25309435
O       3.83813323     2.96912121     3.17483881     0.39576260    -0.13027167     0.00210471
O       3.77440124    -1.08373278     3.23497182     0.78321565     0.20841499     0.10165914
O       0.04049423    -0.80973078     3.17294780    -1.46344109    -0.31945274    -0.28283919
O       5.65926298    -0.61423799     1.62086600     0.42584760    -0.83601070    -0.00612000
O       5.77365400     2.63569800     1.67670701    -0.12736633     0.08790091    -0.05732225
O       1.86694300     6.55440799     1.66827600    -0.18410391    -0.17542721    -0.51678164
O       1.79437602     2.97179800     1.68757498     0.26258352    -0.09512288     0.61317311
