# total energy = -19960.40328584 eV

CRYSTAL
PRIMVEC
        5.93400000     0.00000000     0.00000000
        0.00000000     9.29699974     0.00000000
        0.00000000     0.00000000     4.64899994
PRIMCOORD
24 1
Ti      4.42865101     6.81365500     2.36270599     1.88931724     2.71687235     0.42222492
Ti      4.48756501     2.40781200     2.37047399    -0.78047254    -2.00721393     0.41614066
Ti      1.49636800     6.82871999     2.16709699    -1.82790513     3.01029138     0.75518624
Ti      1.51005703     2.44249999     2.31844502     0.76995724    -1.91636345     0.44972673
Ti      2.94991398     4.70092298     4.57373798    -0.07779004    -1.21295719     0.47891905
Ti      2.98258200     9.21917100     0.09274599    -1.33487072    -0.38523059    -1.30345337
Ti      5.89843299     4.63464702     0.03676898     0.12887582    -0.21287534    -0.62615050
Ti      5.88791099     0.05641299     0.05394697     1.67863325    -1.34450388    -0.95939902
O       4.45096801     5.61623499     0.86450100     0.08943637    -0.73736926    -0.56072773
O       4.50124000     0.88897899     0.92700398    -1.22494188     0.89304962     0.39411349
O       1.47398698     5.62947998     0.68345501    -0.03882470     0.40867186     1.18696230
O       1.47528802     0.86400902     0.90999998     0.54775393     0.89427552     0.56211124
O       4.45378101     8.28004903     3.78075100    -0.56748742     0.28926001    -0.01628563
O       4.43071502     3.77882601     3.71065501     0.56779518     0.61415964     0.81294404
O       1.42499401     8.35998199     3.76473899     1.28333859     0.13929651     0.00839286
O       1.49980199     3.76863400     3.75507500    -0.46384441    -0.25517977     0.32103012
O       2.94678400     5.92008899     3.13325098    -0.09390572     0.52452555    -0.29893122
O       3.03574399     1.56646198     3.20269602    -0.38959581    -0.79175351     0.33883861
O       0.08992701     6.03382601     3.19239702    -0.67457673    -0.60938716    -0.31035669
O       5.92667301     1.46995402     3.29318798    -0.32135793     0.76519838    -0.76020298
O       3.01084302     7.86953501     1.42380701    -0.15167020    -0.70238091     0.60156689
O       2.88563201     3.39077001     1.53676301     0.79463238     0.37288414    -1.49617434
O       5.91618499     7.89436200     1.45620599     0.28337990    -1.14456505     0.37969474
O       0.02167801     3.29871598     1.44453202    -0.08587642     0.69129533    -0.79617041
