# total energy = -4970.27837714 eV

CRYSTAL
PRIMVEC
        5.16657662     0.00000000     0.00000000
       -0.00000732     2.78200314     0.00000000
       -2.58331700    -1.39106417     5.57371181
PRIMCOORD
6 1
Ti     -0.00022114     2.08659821     1.39342773    -0.01149515    -0.01494069    21.39661892
Ti      2.58347306    -0.69565908     4.18028363     0.01149515     0.01494069   -21.39661892
O       0.00005484     0.69548989     0.90791204     0.00961901     0.01239761   -14.38102092
O       2.58319697     0.69544914     4.66579943    -0.00961901    -0.01239761    14.38102092
O      -0.00002110    -0.69550875     3.69476795    -0.00196072     0.00011750    -1.98634994
O       2.58327280     2.08644777     1.87894353     0.00196072    -0.00011750     1.98634994
