# total energy = -19961.93498716 eV

CRYSTAL
PRIMVEC
        5.15148368     0.00000000     0.00000000
        0.27399383     5.47588589     0.00000000
        0.00000000     0.00000000     9.22290607
PRIMCOORD
24 1
Ti      2.02953348     3.24500477     3.42163237     0.29210288    -0.23351128     0.17053697
Ti      3.39594382     2.23088091     5.80127381    -0.29210288     0.23351128    -0.17053697
Ti      4.55444723     2.23088278     1.18978386    -0.34481977    -0.24684374     0.24968146
Ti      0.87103012     3.24500311     8.03312242     0.34481977     0.24684374    -0.24968146
Ti      1.89253668     0.50706204     1.18982082     0.29210288    -0.23351128    -0.17053697
Ti      3.53294063     4.96882380     8.03308546    -0.29210288     0.23351128     0.17053697
Ti      0.73403331     0.50706001     5.80123679     0.34481977     0.24684374     0.24968146
Ti      4.69144405     4.96882583     3.42166939    -0.34481977    -0.24684374    -0.24968146
O       1.72695492     1.92815243     4.70637838    -0.00600713     0.08255404    -0.14983649
O       3.69852238     3.54773326     4.51652780     0.00600713    -0.08255404     0.14983649
O       1.04177381     1.92817452     0.09495498     0.13903837    -0.21130234     0.12227246
O       4.38370355     3.54771121     9.12795093    -0.13903837     0.21130234    -0.12227246
O       3.56152557     0.80979036     0.09492508     0.00600713    -0.08255404    -0.14983649
O       1.86395173     4.66609532     9.12798084    -0.00600713     0.08255404     0.14983649
O       4.24670674     0.80976832     4.70640833    -0.13903837     0.21130234     0.12227246
O       1.17877051     4.66611747     4.51649784     0.13903837    -0.21130234    -0.12227246
O       0.35382389     3.33074409     2.49133706    -0.14569881     0.00772900    -0.10246416
O       5.07165346     2.14514159     6.73156917     0.14569881    -0.00772900     0.10246416
O       2.87024999     2.14509057     2.12014535     0.13043237    -0.05359981    -0.10145654
O       2.55522737     3.33079511     7.10276067    -0.13043237     0.05359981     0.10145654
O       0.21682708     0.59280120     2.12011592    -0.14569881     0.00772900     0.10246416
O       5.20865027     4.88308449     7.10279010     0.14569881    -0.00772900    -0.10246416
O       2.41823056     0.59285221     6.73159855    -0.13043237     0.05359981    -0.10145654
O       3.00724680     4.88303347     2.49130758     0.13043237    -0.05359981     0.10145654
