# total energy = -19960.29462761 eV

CRYSTAL
PRIMVEC
        7.60600008     0.00000000     0.00000000
        0.00000000     7.60600008     0.00000000
       -1.89786986    -1.89786986     4.85670466
PRIMCOORD
24 1
Ti      3.82861201     6.43274702     1.26719901     0.76159883     1.59086347     0.10033914
Ti      3.76631800     2.78432600     1.23656298     0.74081017    -1.15943709    -0.11354279
Ti      0.04811698     6.75581502     1.29274901    -0.69714254    -0.99473601    -1.23019773
Ti     -0.00480599     2.93912099     1.11279102    -0.14276107     0.77808398    -0.22004126
Ti      5.67435421     3.01758622     3.55425382    -1.24844871    -0.10938942     0.27400102
Ti      5.74930423    -0.87221677     3.68275679    -0.67873575     0.20183013    -0.43683830
Ti      1.75900322     2.78541320     3.58913581     1.42770609     0.23114740    -0.06181731
Ti      1.92972422    -0.98163078     3.62361980     0.52291347    -0.20803343     2.17281875
O       3.77515198     4.68669298     0.83918997     0.03977498    -1.51541879    -0.17666673
O       3.78427500     0.82156700     0.78261198     0.06054513     0.13006213    -0.19310843
O       0.17429098     4.86879398     0.58069101    -0.32471502     0.54580581     2.66539884
O      -0.03603702     1.07915799     0.70334599     0.34711140    -1.41366092     2.01674630
O       5.75451425     4.86343024     4.09366181     0.14080112    -0.07825798    -0.02345927
O       5.70960821     1.14259322     4.13487879    -0.25984092    -1.53680472    -2.48254115
O       1.85556024     4.52939223     4.18724681    -0.48572528     1.92870141    -1.16916075
O       1.91585120     0.86659220     4.06654783    -0.17461808     0.31155663    -0.31945763
O       3.66887425     2.94338123     3.30020482     1.17546792    -0.41855312    -0.72737975
O       3.88527821    -1.06458678     3.25956782    -1.40573266     0.41313658     0.17143814
O      -0.11037076     2.89605421     2.96760781     1.69625766     0.16792678     2.36589093
O      -0.02804179    -0.83907980     3.26169680     2.06614724     0.08304975    -0.01098556
O       5.80300202     6.48791502     1.78564598    -0.25446629     0.27551746    -2.14605818
O       5.62281102     2.76847000     1.61591502     0.21527161     0.51939646    -0.67722908
O       1.95175202     6.46349799     1.72715802    -0.96616179     0.52126925    -0.28973849
O       1.97332800     2.85527100     1.56540701    -2.55605750    -0.26405599     0.51158878
