# total energy = -19073.51448564 eV

CRYSTAL
PRIMVEC
        5.17600016     0.00000000     0.00000000
        0.00000000     5.50899976     0.00000000
        0.00000000     0.00000000     9.26300011
PRIMCOORD
22 1
Ti      1.89928197     3.48154899     3.17612101    -1.22509177     0.28285796     0.63887001
Ti      3.35503102     2.07888098     5.82507500    -0.23932608     1.45564834    -0.23456928
Ti      4.53071999     2.19890801     1.26927402     1.03602152     0.67367350    -1.64900565
Ti      0.75511001     3.07833101     7.92614798     0.05884795     0.39792516     1.20068300
Ti      1.99055002     0.70453500     1.30662198    -1.41651433    -0.76479112    -3.56740259
Ti      3.24346702     4.94024302     8.08570900     0.90849681     0.66728251     3.12623738
Ti      0.86467102     0.08869598     6.23730202    -0.00095285     0.87345858    -0.84570813
Ti      4.18492399     5.16562802     3.44164898     3.00129663    -1.09871198     1.39735266
O       3.35684102     3.62707200     4.44248799     0.16705106    -1.14475762     0.68518228
O       1.02404000     1.94448699     0.10917001     0.09096643    -0.33659481    -0.29419190
O       4.37269798     3.53876300     8.85386799     0.50014994    -0.23952972     0.19774953
O       3.72585399     0.77828702     0.30084600    -0.66132706     0.02008778    -1.00906041
O       1.85078198     4.64196601     9.21197800    -0.97247719     0.49376692     0.17118000
O       3.29201098     0.78773400     4.55102997     0.66755967     0.80168903     0.19994962
O       0.83552801     4.83098098     4.58753400    -0.67801995    -0.10112898     0.30717109
O       0.22675901     3.65157200     2.23822402    -0.36446995    -0.55432490     1.04123160
O       5.10109401     1.93288198     6.43041002     0.85887090    -0.76442705     0.32718148
O       2.77030201     2.18268200     2.05951499     0.30555593     1.75329657     1.65146440
O       2.51207500     3.60529302     7.15140301    -1.64505361    -1.99439981    -3.27366603
O       0.22040799     0.81367500     2.18946299     0.25689187    -0.16008800     1.62296602
O       2.38846200     0.86299099     7.09682801     0.13699228     0.57414169    -1.13279248
O       2.74231901     4.90856001     2.38336401    -0.78546845    -0.83507379    -0.56082209
