# total energy = -19516.78851423 eV

CRYSTAL
PRIMVEC
        5.93400000     0.00000000     0.00000000
        0.00000000     9.29699974     0.00000000
        0.00000000     0.00000000     4.64899994
PRIMCOORD
23 1
Ti      4.57432700     7.04245600     2.29852901    -0.25519674    -0.26374206    -1.05108613
Ti      4.42901202     2.26039697     2.37145001     2.09635385     1.51009532    -0.44687872
Ti      1.49371201     6.93851199     2.32347702     0.45684381     1.13710139    -0.07821710
Ti      1.51425001     2.28964799     2.23311201    -2.11522062     0.78307681     0.02905065
Ti      2.92140403     4.53421902     0.05558002     0.28996989    -0.72261807     0.35847105
Ti      3.01704699     0.09562799     0.03730499    -2.40905925    -0.71707451    -0.14245614
Ti      5.90547100     4.70146401     4.60923302     0.15506560    -1.55337240     1.25519709
Ti      5.83352501     9.26389299     4.57578700     2.59504135     0.18637548    -0.63859104
O       4.52955099     5.56386602     0.93602401    -1.46641715     0.98697694     0.34302026
O       4.46793099     1.04187402     0.84511798    -0.35304679    -1.03151797    -0.30369085
O       1.48617801     5.53967998     1.09173400     1.14167359    -0.48011873    -1.33497793
O       1.40661801     1.01106198     0.83387402     0.34932409    -0.59927783     0.06919767
O       4.32588500     8.32504899     3.66802201     0.49087674     0.46680786     1.40022279
O       4.52361002     3.70831298     3.87620002    -1.60600908     0.08565608    -1.09529241
O       1.40189499     8.59611099     3.57176001     0.33626905    -0.88126830     1.76061085
O       1.46438300     3.52370802     3.81989302     1.00734548     1.88779412     0.19802515
O       3.01882598     1.39614702     3.22528798    -0.61442523     0.09872448    -0.08893166
O       0.08941000     6.01859798     3.33201499    -0.54272614     1.20273345    -0.77384835
O       5.84246800     1.36993798     3.13944098     0.30555516    -0.24844708     0.35624987
O       2.90437299     7.87732598     1.49088700     1.18358207    -0.21651602    -0.34455469
O       2.97318503     3.18684600     1.28187299    -0.22126074    -0.24355118     1.64691817
O       0.11022598     7.92683099     1.55890802    -1.41507760     0.17845082    -1.52713197
O       5.89147098     3.41077598     1.53862900     0.59053865    -1.56628886     0.40869371
