# total energy = -19913.81933562 eV

CRYSTAL
PRIMVEC
        6.79317536     0.00000000     0.00000000
        0.00003381     6.54142193     0.00000000
        0.00000000     0.00000000    11.60834437
PRIMCOORD
24 1
Ti      2.46221941     3.87644052     4.30661307     0.22095812    -0.93471539     0.78152309
Ti      4.33098976     2.66498128     7.30173170    -0.22095812     0.93471539    -0.78152309
Ti      5.85868870     2.66498353     1.49751294     0.22085424     0.93476450    -0.78187148
Ti      0.93452054     3.87643860    10.11083202    -0.22085424    -0.93476450     0.78187148
Ti      2.46220257     0.60572969     1.49755951     0.22095812    -0.93471539    -0.78152309
Ti      4.33100667     5.93569231    10.11078545    -0.22095812     0.93471539     0.78152309
Ti      0.93450363     0.60572730     7.30168520    -0.22085424    -0.93476450    -0.78187148
Ti      5.85870554     5.93569476     4.30665964     0.22085424     0.93476450     0.78187148
O       2.15009482     2.30334578     5.92364943     1.16583117     1.37886437    -0.45698727
O       4.64311442     4.23807601     5.68469534    -1.16583117    -1.37886437     0.45698727
O       1.24655648     2.30337224     0.11951442    -1.16586613     1.37961230    -0.45751692
O       5.54665282     4.23804963    11.48883009     1.16586613    -1.37961230     0.45751692
O       4.64309751     0.96736498     0.11947678    -1.16583117    -1.37886437    -0.45698727
O       2.15011172     5.57405681    11.48886772     1.16583117     1.37886437     0.45698727
O       5.54663592     0.96733860     5.92368713     1.16586613    -1.37961230    -0.45751692
O       1.24657319     5.57408327     5.68465770    -1.16586613     1.37961230     0.45751692
O       0.24683245     3.97886365     3.13570349    -0.17626539    -0.11927969     0.11570148
O       6.54637678     2.56255821     8.47264127     0.17626539     0.11927969    -0.11570148
O       3.64342615     2.56249733     2.66850580    -0.17694287     0.11932443    -0.11586758
O       3.14978302     3.97892454     8.93983884     0.17694287    -0.11932443     0.11586758
O       0.24681555     0.70815262     2.66846869    -0.17626539    -0.11927969    -0.11570148
O       6.54639362     5.83326924     8.93987588     0.17626539     0.11927969     0.11570148
O       3.14976618     0.70821351     8.47267832     0.17694287    -0.11932443    -0.11586758
O       3.64344305     5.83320829     3.13566645    -0.17694287     0.11932443     0.11586758
