# total energy = -19960.51141917 eV

CRYSTAL
PRIMVEC
        5.93400000     0.00000000     0.00000000
        0.00000000     9.29699974     0.00000000
        0.00000000     0.00000000     4.64899994
PRIMCOORD
24 1
Ti      4.50279801     6.92249998     2.17414500    -1.48327922     0.85471317     0.78394559
Ti      4.41002202     2.25441002     2.28834298     0.45327409     0.80292085     0.44528798
Ti      1.47216301     6.95810298     2.41134500     1.52330308     0.18192413     0.09872551
Ti      1.45114600     2.28407199     2.32612201    -0.25727291     0.43403837     0.74878497
Ti      2.99162997     4.71562098     4.64432202    -1.11685549    -1.33371835    -0.58359718
Ti      2.96754299     0.06099101     0.03639702    -0.51605428    -0.90036055    -0.90378141
Ti      5.93007102     4.63115498     4.60018699     0.82417282    -1.35088201    -0.30847644
Ti      5.92353102     9.25726599     0.09601699     0.10662934     0.55815174    -1.78773728
O       4.48370497     5.50780700     0.90792401     0.39766059     0.66221152     0.20251816
O       4.38309298     0.87545698     0.85775902     0.85409199     0.64653653     1.70792327
O       1.49064098     5.60511602     0.87860098    -0.45497384    -0.78576721    -0.29418548
O       1.46251701     0.96467298     1.00107202     0.19993497    -1.20633968    -0.84785989
O       4.44612302     8.45733102     3.77960199     0.01552407    -0.60978079    -0.28398642
O       4.42053100     3.82363700     3.69646401     0.71008445     0.09459941     0.47134792
O       1.47424601     8.51250998     3.71451700    -0.25637199    -0.63443434     0.14902531
O       1.59066199     3.74019602     3.63823801    -0.75742182     1.48823991     1.57458298
O       3.02249201     6.10560298     3.18071099     0.08811457    -0.19701162     0.62608751
O       3.00717498     1.52276802     3.24938401    -0.25647381    -1.32601841     0.97407796
O       5.82814598     6.07003502     3.20655399     0.53022775    -0.16601645     0.37435739
O       5.88480202     1.47917599     3.40261803     0.45095675    -0.05176301    -0.81678321
O       2.82755698     7.80251402     1.37822802     1.35872774     0.72003899    -0.12312298
O       3.03552602     3.15882702     1.38054200    -0.36428020     0.90488107    -0.47557507
O       0.13067799     7.88125100     1.45853501    -1.61841799     0.19660693    -0.36840400
O       0.03412802     3.18202499     1.49201002    -0.43130040     1.01723009    -1.36315595
