# total energy = -4985.49238095 eV

CRYSTAL
PRIMVEC
        4.20813297     0.00000000     0.00000000
        1.61850520     3.88443355     0.00000000
       -2.91335815    -1.94224282     5.48565058
PRIMCOORD
6 1
Ti      1.21376514     2.91347470     1.37141236    -0.00019515     0.00019515     0.00000000
Ti      1.69951500    -0.97128394     4.11423747     0.00019515    -0.00019515     0.00000000
O       0.40467005     0.97110330     0.89356752    -0.00075462    -0.00101224    -1.72501160
O       2.50860990     0.97108739     4.59208237     0.00075462     0.00101224     1.72501160
O      -0.40463370    -0.97107907     3.63639269    -0.00101224    -0.00075462    -1.72501160
O       3.31791358     2.91326971     1.84925725     0.00101224     0.00075462     1.72501160
