# total energy = -4981.30566235 eV

CRYSTAL
PRIMVEC
        4.12980306     0.00000000     0.00000000
        0.00000000     2.45443483     0.00000000
        0.00000000    -0.00009798     5.59574766
PRIMCOORD
6 1
Ti      2.06490153     1.22716827     2.79787358     0.00000000     0.00000000     0.00000000
Ti      0.00000000     0.00000000     0.00000000     0.00000000     0.00000000     0.00000000
O       2.06490153     0.47831405     1.09052872     0.00000000    -0.88012031     0.54841651
O       2.06490153     1.97602250     4.50521844     0.00000000     0.88012031    -0.54841651
O       0.00000000     0.74881547     3.88840352     0.00000000     0.88004317     0.54992729
O       0.00000000     1.70552108     1.70734363     0.00000000    -0.88004317    -0.54992729
