# total energy = -19519.17294030 eV

CRYSTAL
PRIMVEC
        7.60600008     0.00000000     0.00000000
        0.00000000     7.60600008     0.00000000
       -1.89786986    -1.89786986     4.85670466
PRIMCOORD
23 1
Ti      3.80768601     6.69810798     1.18155300     0.33318398    -0.60372636    -0.26790416
Ti      3.82889501     2.83470500     1.18514701    -0.10924647     0.77583632     0.59897264
Ti      0.05564500     6.64513803     1.21238302    -0.60465684     0.03470399    -0.25249785
Ti     -0.01735098     2.77138698     1.18144298     0.19346556    -0.02405499    -0.72878203
Ti      5.53565823     2.82400223     3.75519480     0.57033851     0.55107966     0.13545939
Ti      5.69801521    -0.92091378     3.56402682     0.37396555    -0.54333369     0.58691416
Ti      2.00532222     2.91917423     3.63504781    -0.26147306    -0.63736334     0.72002819
Ti      1.92387321    -0.93853977     3.59347480    -0.50885493     0.48463641     0.01192581
O       3.88415900     4.70299100     0.72891499    -0.17915119     0.40808642     1.01992512
O       3.69662203     0.97567802     0.71663099     0.03890620     0.00489153     0.94249401
O      -0.13263500     4.63966600     0.83964200     0.30624138     1.32097956     0.14875329
O       0.09141399     0.90592700     0.74359500     0.21472267     0.03335956     0.24835529
O       5.70872824     4.72178923     4.09767483     0.56013843    -0.25248500    -0.44211626
O       5.60523022     0.94260825     4.03287083     0.44205456    -0.48139039     0.08645132
O       1.90869022     4.79064022     4.03918280    -0.63713683    -0.51433421     0.53300480
O       1.84583020     0.99275621     3.95019181    -0.01871712    -0.16934834     0.56204593
O       3.78895520     2.93091525     3.36070179    -0.08435973    -0.13280524    -1.72326608
O       3.79683222    -1.00765175     3.35546579     0.21313168     0.31795328    -1.33104029
O      -0.00486478    -0.86211377     3.22647979     0.00570965    -0.34608475    -0.45931901
O       5.70998800     6.76667300     1.57045203    -0.71833564    -0.31403620     0.46137281
O       5.84180801     2.70625400     1.79577797    -1.10950984    -0.02605531    -0.24122844
O       1.91046301     6.44785201     1.61327702     0.48898775     0.44072684     0.07682253
O       1.79138998     2.95053100     1.73813300     0.49059598    -0.32723625    -0.68637116
