# total energy = -19948.05960826 eV

CRYSTAL
PRIMVEC
        6.39723020     0.00000000     0.00000000
        0.00002518     4.53905825     0.00000000
        0.00000000     0.00000000     9.93891965
PRIMCOORD
24 1
Ti      2.31870328     2.68984170     3.68726830     0.24266466     0.74524301    -0.76485951
Ti      4.07855221     1.84921655     6.25165146    -0.24266466    -0.74524301     0.76485951
Ti      5.51720810     1.84921813     1.28215185     0.24371419    -0.74560528     0.76571826
Ti      0.88004739     2.68984033     8.65676797    -0.24371419     0.74560528    -0.76571826
Ti      2.31869069     0.42031268     1.28219169     0.24266466     0.74524301     0.76485951
Ti      4.07856480     4.11874573     8.65672813    -0.24266466    -0.74524301    -0.76485951
Ti      0.88003480     0.42031099     6.25161156    -0.24371419     0.74560528     0.76571826
Ti      5.51722069     4.11874742     3.68730814     0.24371419    -0.74560528    -0.76571826
O       2.02477267     1.59827959     5.07175464     1.21633176    -0.18239773     0.51886655
O       4.37248282     2.94077871     4.86716512    -1.21633176     0.18239773    -0.51886655
O       1.17389770     1.59829788     0.10232675    -1.21631814    -0.18242575     0.51848654
O       5.22335790     2.94076042     9.83659268     1.21631814     0.18242575    -0.51848654
O       4.37247029     0.67124953     0.10229448    -1.21633176     0.18239773     0.51886655
O       2.02478520     3.86780872     9.83662495     1.21633176    -0.18239773    -0.51886655
O       5.22334531     0.67123129     5.07178685     1.21631814     0.18242575     0.51848654
O       1.17391012     3.86782706     4.86713286    -1.21631814    -0.18242575    -0.51848654
O       0.23244161     2.76091253     2.68475017    -0.49665093     0.11664148     0.88295032
O       6.16481388     1.77814577     7.25416959     0.49665093    -0.11664148    -0.88295032
O       3.43106387     1.77810345     2.28474132    -0.49657688    -0.11646767    -0.88310279
O       2.96619162     2.76095486     7.65417827     0.49657688     0.11646767     0.88310279
O       0.23242902     0.49138335     2.28470955    -0.49665093     0.11664148    -0.88295032
O       6.16482647     4.04767490     7.65421000     0.49665093    -0.11664148     0.88295032
O       2.96617909     0.49142568     7.25420126     0.49657688     0.11646767    -0.88310279
O       3.43107640     4.04763263     2.68471845    -0.49657688    -0.11646767     0.88310279
