# total energy = -19071.36576713 eV

CRYSTAL
PRIMVEC
        5.17600016     0.00000000     0.00000000
        0.00000000     5.50899976     0.00000000
        0.00000000     0.00000000     9.26300011
PRIMCOORD
22 1
Ti      1.46596899     3.09661001     3.44567803     1.44326153    -0.60519651     0.26591696
Ti      4.70737301     3.13074501     5.70000200    -2.07295655    -0.27660195    -3.55052303
Ti      4.19131401     1.96859599     1.51525598     1.00129413     1.20988369     0.34029051
Ti      1.32055701     3.02318899     8.06817101    -0.41140905    -2.28486901     0.69980749
Ti      1.58101102     0.51720800     1.30175000    -0.01584623    -0.12922626     0.38667246
Ti      3.35890301     5.22657897     8.19061802    -0.93726001    -0.43249391    -2.56099762
Ti      1.41862599     0.05910201     6.00985502     1.13979745     3.20234668    -2.83293276
Ti      3.79100698     5.04087200     3.32802700    -2.04321145    -1.41126336     3.35116245
O       3.06978199     3.41561700     4.49618102     1.28163935    -0.28121117     0.53827839
O       0.72755802     2.13348101     0.47256301    -0.70093595    -1.02304953    -0.81610830
O       4.80323802     3.75770400     7.42863601    -0.59405695     1.15863362     1.32308015
O       3.42538498     0.44881697     0.54298798     0.80368369     1.76388027     0.36016258
O       2.05072398     4.27442701     9.20252901    -0.45007640     0.39525044     0.27308905
O       2.81610500     0.39716599     4.73462500     0.14128449    -0.41111672     0.19838742
O       0.12130002     4.75750001     4.73349600     0.76089718    -0.67722600     1.48174710
O       4.85203801     3.28828103     2.69377198    -0.93554997     0.87046247    -1.19735702
O       0.87574702     2.10176202     4.82251600    -2.19796543    -0.58152642     2.55557542
O       2.53664703     1.85941699     2.47100899    -0.92256281    -0.63162258    -0.84916087
O       2.16782599     4.13838898     6.80043498     0.89179955    -0.34503934    -0.17357858
O       5.00476697     0.67320898     2.45361901     1.63413721    -0.61212590    -0.05991213
O       2.17274898     1.31557603     7.41349598     0.51168186    -0.88910040     0.57151479
O       1.94650702     4.56986101     2.46825700     1.67235436     1.99121189    -0.30511473
