# total energy = -19961.43368413 eV

CRYSTAL
PRIMVEC
        7.60600008     0.00000000     0.00000000
        0.00000000     7.60600008     0.00000000
       -1.89786986    -1.89786986     4.85670466
PRIMCOORD
24 1
Ti      3.79109800     6.66550902     1.11843898     0.67961147     1.45691486     0.61024308
Ti      3.80961100     2.91366301     1.16237900     0.16332348    -1.82972444     1.14262129
Ti     -0.01626199     6.72608701     1.26310403    -0.94217056     0.10490928    -0.23033005
Ti     -0.03243200     2.88341899     1.33068102     0.17561567    -0.59570863    -1.24047160
Ti      5.69353625     2.88891524     3.71526579    -0.38278007    -2.24232572    -0.47094040
Ti      5.67187623    -1.00299579     3.65531879    -0.20176225     2.17566547    -0.37824258
Ti      1.93381920     2.84396523     3.67829281     0.44768013    -0.44423845    -1.55869407
Ti      1.92072921    -0.95693080     3.55688981     0.12417379    -0.01671783     0.82710542
O       3.83116201     4.75987300     0.76164000    -0.17874264     0.00505145     0.51670682
O       3.86508502     0.92973601     0.65132898    -0.48248311    -0.24031159     0.53755616
O      -0.10333900     4.67414698     0.78968698     0.29804676     1.54042767     0.30717289
O      -0.14914803     1.03396499     0.73813199     0.39240474    -1.41576280     0.79735132
O       5.71402822     4.75591523     4.16657482    -0.32580594    -0.37461913    -0.63421682
O       5.76753222     0.92875222     4.03876084     0.16296198    -0.11278431     0.20797533
O       2.02536221     4.74681423     3.98978379    -0.13021434    -0.65983196    -0.26134991
O       1.97188425     0.90414024     4.11438683    -0.51464480     0.49321670    -0.85131905
O       3.85567921     2.55540721     3.16010080    -0.35777916     1.24022401     0.38101192
O       3.75356822    -0.95281079     3.08584279     0.34257880    -0.28944513     0.57867300
O       0.02003222     2.76266524     3.31975882    -0.11149902     0.51394803    -0.20520830
O      -0.06291478    -1.15011976     3.17298981     0.96336623     0.37049456     0.23488862
O       5.66734902     6.82165901     1.64636203     0.13508632    -0.74240400    -0.34269733
O       5.71350502     2.90877098     1.61765601    -0.56503330     0.19267726     0.55865747
O       1.87797402     6.66195099     1.54882799    -0.28148294     0.24505450    -0.15747678
O       1.88821302     2.72768001     1.70662002     0.58954852     0.62529021    -0.36901592
