# total energy = -19517.27762779 eV

CRYSTAL
PRIMVEC
        5.17600016     0.00000000     0.00000000
        0.00000000     5.50899976     0.00000000
        0.00000000     0.00000000     9.26300011
PRIMCOORD
23 1
Ti      1.83614801     3.11605600     3.42454300    -0.81244293     0.15500390     1.98014406
Ti      3.26387299     2.27609999     5.89777999     1.58799309     0.04532111    -1.86955727
Ti      4.36618402     2.03057799     1.39903098     1.78580381     0.45939691    -1.91174344
Ti      0.88771600     3.45683001     7.67367497    -2.97414525    -0.60573156     2.92444350
Ti      2.08154999     0.27729602     1.43571402    -0.81268462    -0.95444116    -1.89432986
Ti      3.17502000     5.30262100     7.85618900    -0.42017369     0.31823507     2.23913009
Ti      0.74581802     0.52245702     5.92031199    -1.11301092    -0.02845827    -2.25932097
Ti      4.51362201     4.86956901     3.37697399     0.89479411    -0.12609132     2.22585548
O       1.58420301     1.81802199     4.85508898     1.25065163     0.28322280    -1.40607642
O       3.54771599     3.40304200     4.50684198    -0.01122133     0.90935633    -0.74352886
O       0.19028701     2.75180298     9.24214698    -0.46925350    -0.52353773    -0.13222186
O       3.41202198     0.88828799     0.15301102     0.45443031     0.39776472     0.03640298
O       1.91173198     4.61988398     9.19551699    -0.10121846    -0.15841138    -1.18271612
O       4.34345797     0.71920999     4.86547900    -0.88156141    -0.76273063    -0.59903718
O       1.04629799     4.46471301     4.49014998    -0.97396843     1.56643953     0.47004257
O       0.06923300     3.28752700     2.47118701     1.17700930     0.77703780     0.89758556
O       5.04648900     2.26628899     6.63715602    -0.71463453    -0.30479642     0.44724613
O       2.71879597     1.81597000     2.32808700    -0.09102608     0.69532117     0.16089301
O       2.48914300     3.75871002     6.92344298     2.07209934    -0.27077352    -1.07752762
O       0.27812800     0.67105602     1.98275699     0.11151187    -1.27702936     0.70365309
O       4.94613699     4.92309699     7.25304198     0.14160073    -0.00677460     0.44037357
O       2.21559201     1.17119001     7.09237101    -0.13418644    -0.66985644     0.51050481
O       2.88165101     4.48787701     2.41459198     0.03363287     0.08153305     0.03978475
