# total energy = -19931.16720296 eV

CRYSTAL
PRIMVEC
        5.38666437     0.00000000     0.00000000
        0.00002276     4.23746427     0.00000000
        0.00000000     0.00000000     8.57639950
PRIMCOORD
24 1
Ti      1.95242025     2.51111744     3.18178304    -0.92519613     2.75413922    -5.20771919
Ti      3.43426692     1.72634698     5.39461650     0.92519613    -2.75413922     5.20771919
Ti      4.64565941     1.72634845     1.10638246    -0.91846472    -2.75451100     5.20653443
Ti      0.74102777     2.51111615     7.47001718     0.91846472     2.75451100    -5.20653443
Ti      1.95240897     0.39238540     1.10641685    -0.92492462     2.75444209     5.20427185
Ti      3.43427821     3.84507916     7.46998279     0.92492462    -2.75444209    -5.20427185
Ti      0.74101649     0.39238378     5.39458211     0.91874240     2.75439247     5.21057672
Ti      4.64567069     3.84508078     3.18181743    -0.91874240    -2.75439247    -5.21057672
O       1.70492133     1.49208323     4.37647102     0.89995740    -3.36130314     3.72468577
O       3.68176590     2.74538118     4.19992853    -0.89995740     3.36130314    -3.72468577
O       0.98845843     1.49210033     0.08829886    -0.90045594    -3.36342070     3.72660227
O       4.39822884     2.74536413     8.48810045     0.90045594     3.36342070    -3.72660227
O       3.68175461     0.62664900     0.08827103    -0.89985096     3.36168495     3.72481150
O       1.70493261     3.61081541     8.48812827     0.89985096    -3.36168495    -3.72481150
O       4.39821756     0.62663195     4.37649884     0.90076807     3.36300161     3.72655085
O       0.98846962     3.61083251     4.19990070    -0.90076807    -3.36300161    -3.72655085
O       0.19572383     2.57746597     2.31669947     3.01481832    -1.07275848     1.24453292
O       5.19096340     1.65999844     6.25970008    -3.01481832     1.07275848    -1.24453292
O       2.88906182     1.65995892     1.97152758     3.01563028     1.07250523    -1.24342606
O       2.49762541     2.57750554     6.60487182    -3.01563028    -1.07250523     1.24342606
O       0.19571254     0.45873384     1.97150018     3.01530863    -1.07239878    -1.24405084
O       5.19097468     3.77873062     6.60489922    -3.01530863     1.07239878     1.24405084
O       2.49761412     0.45877336     6.25972742    -3.01533434    -1.07266052    -1.24425653
O       2.88907310     3.77869105     2.31667207     3.01533434     1.07266052     1.24425653
