# total energy = -19901.97492538 eV

CRYSTAL
PRIMVEC
        6.72216274     0.00000000     0.00000000
        3.36681168     6.31270355     0.00000000
        0.00000000     0.00000000    12.45008903
PRIMCOORD
24 1
Ti      4.43163019     3.74090228     4.61889425    -0.09367818    -2.10839588     0.29809972
Ti      5.65734441     2.57180143     7.83119491     0.09367818     2.10839588    -0.29809972
Ti      7.16907475     2.57180368     1.60610059    -0.39240371    -1.48549680     0.55547187
Ti      2.91990006     3.74090032    10.84398864     0.39240371     1.48549680    -0.55547187
Ti      2.74822461     0.58455072     1.60615053    -0.09367818    -2.10839588    -0.29809972
Ti      7.34075012     5.72815324    10.84393877     0.09367818     2.10839588     0.29809972
Ti      1.23649416     0.58454829     7.83114497     0.39240371     1.48549680     0.55547187
Ti      8.85248056     5.72815560     4.61894413    -0.39240371    -1.48549680    -0.55547187
O       3.31311864     2.22281028     6.35318516     1.74524439     1.92302236    -0.88561861
O       6.77585604     4.08989348     6.09690400    -1.74524439    -1.92302236     0.88561861
O       2.41903899     2.22283569     0.12818065     0.26321704    -1.27011515     1.86406540
O       7.66993577     4.08986812    12.32190812    -0.26321704     1.27011515    -1.86406540
O       5.09245033     0.93354167     0.12814024    -1.74524439    -1.92302236    -0.88561861
O       4.99652434     5.37916202    12.32194852     1.74524439     1.92302236     0.88561861
O       5.98653006     0.93351631     6.35322550    -0.26321704     1.27011515     1.86406540
O       4.10244455     5.37918747     6.09686360     0.26321704    -1.27011515    -1.86406540
O       2.29211741     3.83974410     3.36307965     0.63609579     3.26642477     3.03002100
O       7.79685727     2.47295965     9.08700945    -0.63609579    -3.26642477    -3.03002100
O       4.92422118     2.47290070     2.86200447     0.45674045     2.18924630     2.12338284
O       5.16475349     3.83980306     9.58808443    -0.45674045    -2.18924630    -2.12338284
O       0.60871170     0.68339230     2.86196473     0.63609579     3.26642477    -3.03002100
O       9.48026296     5.62931140     9.58812417    -0.63609579    -3.26642477     3.03002100
O       3.48134778     0.68345126     9.08704912    -0.45674045    -2.18924630     2.12338284
O       6.60762688     5.62925244     3.36303991     0.45674045     2.18924630    -2.12338284
