# total energy = -19517.45609849 eV

CRYSTAL
PRIMVEC
        5.93400000     0.00000000     0.00000000
        0.00000000     9.29699974     0.00000000
        0.00000000     0.00000000     4.64899994
PRIMCOORD
23 1
Ti      4.51821601     6.98100900     2.25356598     0.22980169     0.04438163     0.26517956
Ti      4.46470402     2.33652002     2.31827500    -1.25439696    -0.32121395     0.11449718
Ti      1.54631599     7.06027297     2.27204898    -0.39802054     0.54480282    -0.48326062
Ti      1.41272000     2.33455699     2.36459399     1.41377456    -1.10594809    -0.23588080
Ti      2.92501503     4.55830299     0.11701300     0.52456437     0.20890529     1.59263136
Ti      3.03318700     0.08235199     4.59258298    -1.16363750    -0.31795456    -0.23474361
Ti      5.89982499     4.56062300     4.62741999    -0.08899466     1.34834485    -0.05234254
Ti      5.92221798     0.06193300     4.61621900     1.04000056    -0.42202360     0.09769501
O       4.48622000     5.47694702     1.07251798    -0.37142504    -0.16469593    -0.80342890
O       4.39020502     0.98949399     0.86020000     0.69620254    -0.20491083     0.20983064
O       1.49741202     5.56115399     1.05702600     0.55760949    -0.19033884    -0.67808834
O       1.46595100     0.97221497     0.87032697    -0.59639588    -0.28986911     0.13307392
O       4.33829998     8.50520400     3.52165200     0.85849501    -0.75928793     1.26438390
O       4.44332198     3.59307802     3.83541601    -0.11764781     0.87030332    -0.08621118
O       1.40030699     8.40530099     3.73410201     0.03898899    -0.52969373    -0.27969216
O       1.62276501     3.71357300     3.84757502    -1.39319416    -0.23474283    -1.09806689
O       2.98698898     1.42728598     3.23888900    -0.46062179     0.39750144    -0.67275973
O       5.91901000     5.86784501     3.31957398    -0.02755401     1.25568637    -0.37808832
O       5.87733501     1.35700902     3.20739501     0.27815798     0.54201497    -0.03704704
O       3.01258598     7.98508700     1.29930599    -0.57550026    -2.04354569     1.51321536
O       2.86708599     3.26104300     1.44842100     0.76145485    -0.24494755     0.57012717
O       5.92595100     7.80111901     1.45994098     0.38533986     0.92667297    -0.90755142
O       0.03647799     3.14190203     1.41265698    -0.33700130     0.69055846     0.18652769
