# total energy = -19960.56815629 eV

CRYSTAL
PRIMVEC
        5.93400000     0.00000000     0.00000000
        0.00000000     9.29699974     0.00000000
        0.00000000     0.00000000     4.64899994
PRIMCOORD
24 1
Ti      4.45733300     7.10367101     2.45142202     0.27976467    -1.78641908    -1.81228979
Ti      4.45382498     2.23976901     2.29333000    -0.47303611     1.08881683     1.03808226
Ti      1.47808599     6.94651299     2.43521999    -0.47755919    -0.69717108    -0.87044164
Ti      1.48676301     2.37555002     2.17872799     0.49020105     0.86745633     1.10117432
Ti      2.94919599     4.63555302     4.64156299     0.34370520    -0.71633609    -0.58073194
Ti      2.98148200     9.22973899     0.00779600    -1.13992498     0.54059752     0.33786314
Ti      5.90769799     4.71298599     0.07594403    -0.31141624    -0.80843998    -0.63598369
Ti      5.93290799     0.03201999     4.63118800     1.09673454     0.51193614     0.17753525
O       4.46843900     5.52372602     0.82728899    -0.59296654     1.18942773     0.86573909
O       4.42253002     0.85634299     0.86856503     0.66636848     0.14249830    -0.39167326
O       1.44947602     5.58318602     0.88488702     0.46343406     0.16311110     0.50417860
O       1.57674098     1.04359702     0.81993898    -0.86016520    -1.59914706    -1.17502261
O       4.46940200     8.32459400     3.78496700     0.04242502     1.16494182     0.68134310
O       4.43975897     3.64892501     3.87345999     0.22124942    -0.31700840    -1.55021457
O       1.42303801     8.27600601     3.81052298     0.39088547     0.71584141     0.37473123
O       1.49174098     3.77647202     3.69031201     0.08932633    -0.31123267    -0.09094252
O       2.96966002     6.07047101     3.20889899    -0.07183433     0.24524348    -0.25555387
O       2.95371098     1.40182498     3.06939802     0.25043788    -0.57100186     0.90928100
O       5.89566201     6.06098302     3.20056402     0.16955866    -0.05233740     0.07920338
O       0.16213800     1.26357298     3.11507798    -1.32358383     0.14713143     0.42592577
O       2.97289800     7.93332198     1.36926402    -0.23860952    -0.27231386     0.65059399
O       3.03924000     3.18026902     1.26283600    -0.27668243    -0.18048380     1.53008411
O       5.88138798     7.86932900     1.50775600     0.55922363     0.99601719    -0.93354065
O       5.84502800     3.30281001     1.51520899     0.70246472    -0.46112804    -0.37934044
