# total energy = -19515.70049146 eV

CRYSTAL
PRIMVEC
        5.17600016     0.00000000     0.00000000
        0.00000000     5.50899976     0.00000000
        0.00000000     0.00000000     9.26300011
PRIMCOORD
23 1
Ti      1.92654799     3.22415199     3.37285900    -1.35309368     1.17703321     4.77682940
Ti      3.45521502     2.28862302     6.02625100     0.00912356     0.09621534    -4.38806791
Ti      4.25043100     2.08562698     1.46068399    -0.40855641     0.33653876     0.71555447
Ti      0.87026501     3.46671197     7.85459501    -1.26582809    -0.19679282     0.66907277
Ti      1.78151300     0.32840401     1.33098598    -0.44575515     0.98068544    -0.95479443
Ti      3.31675701     5.22183199     7.97314098     0.70515847    -2.22267888     1.09007101
Ti      0.80316602     0.57918699     5.91457301     0.54487070    -1.89079639    -4.70886277
Ti      4.33928599     4.83289301     3.31689502     2.44023672    -0.36860686     3.54498410
O       1.71458499     1.90852601     4.94145002     1.08541397     1.06157598    -1.38343296
O       3.67389402     3.25096599     4.38524202     0.09239520     1.22467423    -0.12435582
O       4.87438601     2.90427599     0.07196599     1.52312362     1.37498869    -2.43025080
O       3.48193900     0.75117499     0.21915998     0.54918450     0.20290639    -0.27177573
O       1.65935100     4.93593700     8.92718401    -1.46704655    -0.45013528     0.20241583
O       4.49696002     0.67158700     4.76143498    -1.33634885    -0.44052707    -0.65898298
O       1.30144498     4.70132298     4.53900299    -0.08493180    -0.58843060    -0.64562661
O       0.24528397     3.33769999     2.53039702    -1.31637882     0.69318355    -0.22200096
O       0.01890798     2.02679501     6.71615202    -0.41716396     1.04105240     2.62008596
O       2.35516802     2.06746001     1.98747301     0.83835401    -1.04437324    -1.13646967
O       2.71758500     3.29883599     7.33906398    -0.62107797     0.85918946     0.88423459
O       0.00194700     0.65034498     2.17581498     1.37163931    -0.58077282    -0.97400057
O       5.03881598     4.62587199     6.86285499    -0.56391924     0.24461485     1.86470097
O       2.69608501     0.69014598     6.69679001    -0.88183935    -0.22950678     0.28614563
O       2.78375597     4.69939598     2.19874603     1.00243981    -1.28003832     1.24452649
