# total energy = -19951.39013117 eV

CRYSTAL
PRIMVEC
        4.98131299     0.00000000     0.00000000
        1.30504052     5.13848997     0.00000000
        0.00000000     0.00000000     8.98702529
PRIMCOORD
24 1
Ti      2.57885223     3.04506455     3.33412245     2.02753080    -1.61893530     0.81603939
Ti      3.70750142     2.09342576     5.65290334    -2.02753080     1.61893530    -0.81603939
Ti      4.82773596     2.09342754     1.15935456    -3.60061071    -0.19722477     1.60206423
Ti      1.45861772     3.04506298     7.82767133     3.60061071     0.19722477    -1.60206423
Ti      1.92633208     0.47581960     1.15939060     2.02744544    -1.61801870    -0.81625974
Ti      4.36002160     4.66267091     7.82763530    -2.02744544     1.61801870     0.81625974
Ti      0.80609746     0.47581763     5.65286731     3.60065056     0.19757598     1.60240542
Ti      5.48025621     4.66267283     3.33415848    -3.60065056    -0.19757598    -1.60240542
O       2.03614397     1.80934978     4.58601043    -0.68568493     0.04100011    -0.79374586
O       4.25020963     3.32914053     4.40101536     0.68568493    -0.04100011     0.79374586
O       1.37360086     1.80937052     0.09252649     1.02761118    -0.88109193    -0.03901985
O       4.91275286     3.32911988     8.89449905    -1.02761118     0.88109193     0.03901985
O       3.59768946     0.75989543     0.09249733     0.68541779    -0.04126648    -0.79384974
O       2.68866420     4.37859488     8.89452821    -0.68541779     0.04126648     0.79384974
O       4.26023268     0.75987473     4.58603959    -1.02734070     0.88118526    -0.03897485
O       2.02612093     4.37861563     4.40098621     1.02734070    -0.88118526     0.03897485
O       0.97478225     3.12552100     2.42761988    -0.41161217    -0.86979218    -1.21920600
O       5.31157136     2.01296931     6.55940591     0.41161217     0.86979218     1.21920600
O       3.18287781     2.01292139     2.06592162     1.16576072    -1.35825671    -1.60788032
O       3.10347585     3.12556897     6.92110402    -1.16576072     1.35825671     1.60788032
O       0.32226207     0.55627590     2.06589292    -0.41163634    -0.86956772     1.21928879
O       5.96409159     4.58221446     6.92113272     0.41163634     0.86956772    -1.21928879
O       2.45095567     0.55632382     6.55943457    -1.16571341     1.35815618    -1.60798291
O       3.83539799     4.58216649     2.42759117     1.16571341    -1.35815618     1.60798291
