# total energy = -39034.06080070 eV

CRYSTAL
PRIMVEC
        7.60600008     0.00000000     0.00000000
        0.00000000     7.60600008     0.00000000
       -3.79573973    -3.79573973     9.71340985
PRIMCOORD
46 1
Ti      2.03185744     4.66397143     5.89323060    -0.56492120     0.82769292     3.73309816
Ti      3.88398300     6.68886198     1.25351502     1.34638310     1.32009690    -0.01691298
Ti      1.82836847     0.73885447     6.00889261     1.10234649    -0.92866069     0.31164147
Ti      3.74740002     3.13467299     1.38821698     0.58524860    -1.47606959    -2.65262637
Ti     -1.79063855     4.74970645     6.05877762     0.66202357    -1.20350401     1.61409854
Ti      0.04011100     6.78735801     1.14292401    -0.39055483    -1.55846705    -0.33570984
Ti     -1.88836457     0.88709147     6.03955763    -1.00701586     0.36983327     0.77725583
Ti     -0.05998499     2.91715902     1.31585802    -0.94313781     1.16323512    -2.18346106
Ti      3.83055547     0.96366045     8.41562662    -0.14049901    -0.97814339     1.40923168
Ti      5.43703499     2.84968701     3.74644798     0.70656564    -0.18975494    -0.58239853
Ti      3.77353947    -2.85830054     8.41504061     0.51896528     1.49635071     0.12491555
Ti      5.75369201    -0.96150898     3.59650799    -1.12487116    -0.34976143     0.17262110
Ti      0.04269143     1.11409343     8.39260164     0.24959867    -1.06400284     2.97644588
Ti      1.67161002     2.79281798     3.55271301     0.46637026    -0.79282952     0.81981609
Ti      0.10613846    -2.91293153     8.57872661    -0.97974751     1.88926479     0.28889877
Ti      1.83443300    -1.13492899     3.50935900     1.09317716     1.65903270     0.70544978
O       2.02615444    -1.11277853     5.78293165    -0.82057328     1.93480598    -1.92492266
O       3.85698999     0.85436101     0.87558599    -0.13149166     1.36352979    -0.69870397
O      -2.08261157     2.91535246     5.80763464     0.30171727    -2.58125843    -1.11057660
O      -0.20933299     4.90474999     0.89918301     1.34629362    -2.93241032    -0.99206849
O      -1.75648355    -1.08301755     5.62251765     0.00627144     2.73787750    -0.65242744
O      -0.12329301     0.97686798     0.77655401     0.25487946     1.27148863     0.57794590
O       3.72569846     2.93844443     8.94874963     0.25901174    -0.63687072    -0.61283732
O       5.41998998     4.61198199     4.04629600     0.67127723     2.21149767     0.24814343
O       4.08720945    -0.91941854     8.89310960    -0.89276705     0.53040695     0.86627774
O       5.84224300     0.98171000     4.07296701    -0.19761815    -1.18613106     0.60969415
O       0.30119547     2.96898145     8.91140664    -0.04719647    -3.34922923     0.23024623
O       2.01210902     4.72327902     4.07299998    -0.23752323    -1.47259345    -2.03765169
O      -0.06016057    -0.68107054     9.16062262     0.29679412     0.73399237    -0.00402712
O       1.72007800     0.96045703     4.09927501    -0.33812924    -0.32063622    -0.07230716
O       1.97712945     1.01646245     7.93971762    -1.66131352     0.42057838     1.29037056
O       3.62945700     2.77198099     3.23296798     1.04006561     0.03659864     1.45363336
O       1.90276444    -2.69466957     7.91769861     1.67234022    -0.44458710     1.41229643
O       3.87609302    -0.92036201     3.25733601    -0.34736825    -0.13838274    -0.23514264
O      -1.93200153     1.17801047     8.03927862     0.32794664     0.14033935    -0.14179176
O      -0.14190899     3.05631501     3.27506599     0.68341670    -0.26835436     0.04547178
O      -1.74559557    -3.10201254     8.18960565    -0.47850227     0.98103614    -1.12599139
O      -0.03739002    -1.24943400     3.31337101     1.60201049     0.70629156    -0.56247556
O       3.92005347     4.94223743     6.51037764    -0.36619182    -1.04798898     0.10522089
O       5.81107297     6.55903099     1.51613701    -1.28359545     0.57743913     1.81389236
O       3.70073045     0.68605645     6.54140463     2.38088509     0.70331473    -1.78070377
O       5.64271999     2.77791899     1.70039102    -0.74676125     0.60430023     0.12418973
O       0.15421543     4.73256645     6.44519263    -1.14541557    -0.84077933    -0.82857841
O       2.05707702     6.53701002     1.55921500    -2.54408592    -0.36121596     1.04693354
O      -0.02584756     0.93388444     6.62893462    -0.06544926    -0.28045501    -3.78265722
O       1.86720298     2.71710800     1.65352698    -1.11885889     0.72308292    -0.42381669
