# total energy = -19517.10069766 eV

CRYSTAL
PRIMVEC
        5.93400000     0.00000000     0.00000000
        0.00000000     9.29699974     0.00000000
        0.00000000     0.00000000     4.64899994
PRIMCOORD
23 1
Ti      4.46814801     6.94454000     2.31790002     0.16704386     0.62341999    -0.23105021
Ti      4.50846603     2.39817700     2.35335802    -0.79387570    -0.49881580     0.30440073
Ti      1.47371800     7.04639398     2.33962301    -0.04483414     0.73230650    -0.33529923
Ti      1.41221199     2.29047901     2.24491002     1.37959585    -0.18100959     1.40273064
Ti      2.87819702     4.52027202     0.00025702     0.97725225    -1.73457688     0.24797399
Ti      2.96440502     0.05858902     0.02289898     1.23000567     0.81658395    -1.11627570
Ti      5.92530901     4.72413401     4.63063501    -0.84066774    -0.75217342    -0.19699234
Ti      0.03224002     9.26621602     0.04876702    -1.47529851     0.71395268    -0.83019281
O       4.41082600     5.52428801     0.95650502     0.17766946     0.24346788    -0.33190923
O       4.48056097     1.03788100     0.90960500    -0.08427848    -1.85546685    -0.18976111
O       1.56546897     5.44990601     0.83768399    -0.46604990     1.51722139     0.64055871
O       1.46022102     0.97864199     0.77931701    -0.04608601    -0.53537664     1.44232410
O       4.46299499     8.35323001     3.69607697    -0.03230747    -0.18927389     0.44765777
O       4.45543701     3.58515698     3.84718502     0.19013366     1.84048143    -0.32897637
O       1.44413398     8.51628597     3.58947199     0.01727628    -1.00825411     0.77982771
O       1.49969399     3.63692798     3.72402198     0.20993065     1.23655967     0.20924905
O       2.86321898     1.42437402     3.32365801     0.89007356    -0.35003937    -0.67800710
O       0.18615900     5.95345600     3.15000600    -1.16584402    -0.22810784     0.90720946
O       5.85297900     1.56663798     3.41593101     0.85782909    -1.08529879    -1.68027542
O       2.91977400     7.90482701     1.48379602     1.01445561    -0.58088055    -0.27016416
O       3.03036702     3.15509299     1.39852001    -1.01881158     0.59549934     0.21128331
O       0.01987198     7.72758602     1.37709002    -0.10626476     1.03603874    -0.78517072
O       0.12571098     3.31508401     1.41300502    -1.03694763    -0.35625681     0.38085894
