# total energy = -19073.48075725 eV

CRYSTAL
PRIMVEC
        5.17600016     0.00000000     0.00000000
        0.00000000     5.50899976     0.00000000
        0.00000000     0.00000000     9.26300011
PRIMCOORD
22 1
Ti      1.81548501     3.25594703     3.29283401     0.34461460     3.17222903     0.44128297
Ti      3.81313601     2.16110602     5.94085602    -0.51904936     0.27125020    -1.82670957
Ti      4.36860998     2.23440897     1.38691298     0.57457055    -0.56007209    -2.31426547
Ti      0.71180500     3.21022802     8.18855798    -1.60732265     0.67486187     0.75632396
Ti      1.81180400     0.60918700     1.33154998     0.03237740    -1.64161218    -2.25202881
Ti      3.18228402     5.14477701     7.90901798     0.06311983     0.92240340     1.91540032
Ti      0.80036202     0.11546600     6.01962803    -0.95971578    -0.27147800    -1.08177509
Ti      4.48360999     4.87118401     3.41164500    -0.80146869     0.46800111     0.29778579
O       3.50435500     3.43727300     4.22803098     0.01759381    -0.79663810     2.18395420
O       0.90310702     1.99441698     0.31307899    -0.33111913     0.37326544    -0.64970978
O       4.24546901     3.76098300     8.82086098    -0.34068261    -0.12102264     0.08741420
O       3.44473598     0.96207599     0.15505301    -0.08317342     0.14500616    -0.62862236
O       1.72880202     4.83304499     9.11788801    -0.90411822    -0.85761877    -0.58219722
O       4.54950002     0.88910001     4.77421900     0.04313053     0.45159464     0.59835506
O       1.02693000     4.76961600     4.21733900    -0.03383213    -0.32230950     2.23890564
O       0.20517102     3.64158902     2.27368398    -0.44254872    -0.99150388    -0.40646945
O       4.99444701     1.53170699     7.18962400     0.99815790    -0.05395822    -0.24062629
O       2.62365498     2.08724801     2.18564698     0.99088347    -0.76380150     0.18113094
O       1.62106899     4.06149598     6.79649600     1.80769085    -0.37770368    -0.64404744
O       5.13461601     0.76060498     2.20357302     0.69292284     0.15627197     0.25707956
O       2.43688002     0.99021901     6.35568299    -0.11003014     0.24171644     1.03537231
O       2.68774100     4.78988100     2.33736898     0.56799881    -0.11888143     0.63344626
