# total energy = -4985.57944476 eV

CRYSTAL
PRIMVEC
        3.44614856     0.00000000     0.00000000
        0.34374747     3.42896158     0.00000000
       -1.89497858    -1.71450845     4.40357405
PRIMCOORD
6 1
Ti      0.25767855     2.57185163     1.10089330     0.00150307    -0.00172958    -0.00015195
Ti      1.63723859    -0.85739876     3.30268022    -0.00150307     0.00172958     0.00015195
O       0.08597320     0.85723497     0.71730615     0.00085361     0.00357512     2.14505134
O       1.80894385     0.85721780     3.68626746    -0.00085361    -0.00357512    -2.14505134
O      -0.08595412    -0.85721772     2.91909308     0.00354684     0.00076773     2.14456900
O       1.98087112     2.57167045     1.48448054    -0.00354684    -0.00076773    -2.14456900
