# total energy = -19516.67145244 eV

CRYSTAL
PRIMVEC
        5.17600016     0.00000000     0.00000000
        0.00000000     5.50899976     0.00000000
        0.00000000     0.00000000     9.26300011
PRIMCOORD
23 1
Ti      1.82894400     3.20433298     3.43615903    -0.87077743     0.14574921     2.52553258
Ti      3.32095899     2.26960799     5.82061298     0.21476818     0.82415817    -2.91476509
Ti      4.32796102     2.04232700     1.55099502     0.57970273    -0.26072538    -1.25761855
Ti      0.90365001     3.20705999     7.75314898     1.26660662     2.15780761     2.08591954
Ti      2.02162701     0.23257599     1.35371499     0.03837424    -0.34206766    -1.48853379
Ti      3.34112699     5.32926000     7.77881699    -0.02298387    -1.42934337     3.19904410
Ti      0.68288700     0.61784000     6.03604199    -0.73825475    -2.16992291    -4.26224605
Ti      4.44366197     4.95257300     3.30313699     0.93226744     0.11295606     2.75305832
O       1.65025301     1.94577898     4.93202098    -0.01949514     0.53169070    -1.07190565
O       3.49136502     3.61623699     4.42187998    -0.23529742    -0.71906120     1.08825016
O       0.20130400     2.76946501     0.04582601    -0.06057136    -0.40728423     0.36794274
O       3.51168802     0.86522698     0.22304202     0.17059610     0.68087414    -0.92531569
O       1.90584002     4.80759500     9.00357302    -0.27330991    -0.98245205    -0.89271820
O       4.28184798     0.84961000     4.89788502    -0.64393200    -0.15276858    -0.88069443
O       0.85221001     4.70843602     4.41811203     0.52944536     0.50132648     0.56881642
O       0.09622898     3.35577700     2.61982300    -0.06957382    -1.09919535    -1.13701063
O       5.01344601     2.02974899     6.87238102    -1.61175215    -0.13455051     0.33457521
O       2.50887300     1.83957199     2.30838102     0.71079022     0.09832673    -0.24137525
O       2.77800599     3.64174502     6.96150601    -1.09977359     0.25640567     1.30732931
O       0.20349299     0.49565302     1.86316399     0.09230675     0.24972826     0.65844408
O       5.11800000     4.74169100     7.19380598    -0.24948734     0.35971623     0.18777288
O       2.28275201     0.97442498     6.92491203     0.68106928     0.72203751     1.00748380
O       2.78292400     4.39354402     2.31672498     0.67928134     1.05659421    -1.01198632
