# total energy = -19960.69993768 eV

CRYSTAL
PRIMVEC
        7.60600008     0.00000000     0.00000000
        0.00000000     7.60600008     0.00000000
       -1.89786986    -1.89786986     4.85670466
PRIMCOORD
24 1
Ti      3.83910798     6.57938802     1.22837698     0.87974261     0.53798477    -1.56117030
Ti      3.75138801     2.78654998     1.21914802     2.46380037    -0.80400663     0.02182585
Ti     -0.01068001     6.77674499     1.19412302    -0.75954169    -1.65281243    -0.04497401
Ti      0.09719197     2.88325500     1.21230502    -2.83246790     1.33534637     0.60135400
Ti      5.69518421     2.87676724     3.66742779    -1.44220172     1.66792435    -0.86450779
Ti      5.69408125    -0.82293979     3.66213782     0.02133142    -1.26242935    -0.83544789
Ti      1.88202122     2.74303123     3.56744182     1.33080709     0.32006415     2.58257150
Ti      1.93198523    -1.00690778     3.54942381    -0.09154930    -0.39734229     2.44470967
O       3.96510301     4.56506799     0.78549399    -1.28045099     2.21148584    -0.01080069
O       3.91483202     0.86710503     0.70926399    -0.61106275    -0.57587744     0.47036936
O      -0.10240501     4.84837599     0.77225900     0.93595363    -1.09911153     1.07652181
O      -0.11103901     0.99488302     0.79693798     0.59753000     1.18296732    -0.02199374
O       5.43154922     4.80792521     4.13466379     0.90436170     0.95347879    -0.58928112
O       5.58022125     1.07728423     4.15407083     0.77491818    -2.11103486    -0.27593655
O       2.13533921     4.64186722     4.06896082    -1.01712365     0.12168444    -0.29814575
O       1.90347523     0.85952424     4.08588180    -0.61352792     0.37059226    -0.85064800
O       3.74477922     2.69379923     3.21808482    -0.44733843     0.20535126     0.02135688
O       3.83888223    -0.83118675     3.14638881     0.23426667    -0.09921788     0.39324215
O      -0.11307576     3.03982320     3.21354982     1.90346140    -0.39535714    -0.13207093
O       0.01391424    -0.89868278     3.27533682    -1.14471237    -0.09394506     0.04724712
O       5.72445200     6.69687399     1.58990903     0.00134983    -0.09370826     1.25334049
O       5.59705099     2.86342901     1.71332898     1.36633383    -0.45790850    -0.29186814
O       1.89316199     6.63566099     1.69960800     0.19309712    -0.14644212    -1.93820961
O       1.89569902     2.64283999     1.68320700    -1.36697764     0.28231417    -1.19748429
