# total energy = -19957.22282371 eV

CRYSTAL
PRIMVEC
        5.48801277     0.00000000     0.00000000
        0.29189293     5.83360708     0.00000000
        0.00000000     0.00000000     9.82540748
PRIMCOORD
24 1
Ti      2.16211607     3.45699001     3.64515609     0.14579729    -0.72321276     0.51770518
Ti      3.61778939     2.37661685     6.18025150    -0.14579729     0.72321276    -0.51770518
Ti      4.85197394     2.37661884     1.26750844    -0.13350535     0.18562960    -0.22939134
Ti      0.92793159     3.45698824     8.55789926     0.13350535    -0.18562960     0.22939134
Ti      2.01616973     0.54018669     1.26754781     0.14579729    -0.72321276    -0.51770518
Ti      3.76373574     5.29342033     8.55785989    -0.14579729     0.72321276     0.51770518
Ti      0.78198523     0.54018453     6.18021206     0.13350535    -0.18562960    -0.22939134
Ti      4.99792029     5.29342250     3.64519553    -0.13350535     0.18562960     0.22939134
O       1.83977107     2.05411213     5.01383023     0.86043979     0.87233372    -0.11598456
O       3.94013440     3.77949472     4.81157736    -0.86043979    -0.87233372     0.11598456
O       1.10982938     2.05413567     0.10115807    -0.66070922     0.49919529     0.20359288
O       4.67007614     3.77947124     9.72424924     0.66070922    -0.49919529    -0.20359288
O       3.79418805     0.86269124     0.10112621    -0.86043979    -0.87233372    -0.11598456
O       1.98571742     4.97091562     9.72428110     0.86043979     0.87233372     0.11598456
O       4.52412979     0.86266775     5.01386215     0.66070922    -0.49919529     0.20359288
O       1.25577562     4.97093922     4.81154544    -0.66070922     0.49919529    -0.20359288
O       0.37693801     3.54833039     2.65408773     0.19071319     0.03682052     0.28407487
O       5.40296751     2.28527647     7.17131992    -0.19071319    -0.03682052    -0.28407487
O       3.05775375     2.28522212     2.25864731     0.36927046     0.32629497    -0.10455446
O       2.72215177     3.54838474     7.56676011    -0.36927046    -0.32629497     0.10455446
O       0.23099166     0.63152690     2.25861595     0.19071319     0.03682052    -0.28407487
O       5.54891386     5.20207995     7.56679146    -0.19071319    -0.03682052     0.28407487
O       2.57620542     0.63158125     7.17135122    -0.36927046    -0.32629497    -0.10455446
O       3.20370010     5.20202560     2.65405631     0.36927046     0.32629497     0.10455446
