# total energy = -19904.89761259 eV

CRYSTAL
PRIMVEC
        6.66952388     0.00000000     0.00000000
        1.05883882     7.01897457     0.00000000
        0.00000000     0.00000000    11.97088097
PRIMCOORD
24 1
Ti      3.04484850     4.15943776     4.44111150    -0.19459967    -1.47881604     0.63968556
Ti      4.68351412     2.85953661     7.52976975     0.19459967     1.47881604    -0.63968556
Ti      6.18340578     2.85953898     1.54428125     0.23984262     0.15365741    -0.46801525
Ti      1.54495686     4.15943566    10.42660013    -0.23984262    -0.15365741     0.46801525
Ti      2.51542924     0.64995060     1.54432926    -0.19459967    -1.47881604    -0.63968556
Ti      5.21293340     6.36902397    10.42655212     0.19459967     1.47881604     0.63968556
Ti      1.01553756     0.64994803     7.52972174    -0.23984262    -0.15365741    -0.46801525
Ti      6.71282508     6.36902654     4.44115951     0.23984262     0.15365741     0.46801525
O       2.48378154     2.47150018     6.10864899     1.65779163     1.74580026    -0.38367224
O       5.24458108     4.54747419     5.86223219    -1.65779163    -1.74580026     0.38367224
O       1.59669393     2.47152855     0.12324692    -1.05764630     0.68133076     0.49733638
O       6.13166877     4.54744588    11.84763399     1.05764630    -0.68133076    -0.49733638
O       4.71516180     1.03798683     0.12320809    -1.65779163    -1.74580026    -0.38367224
O       3.01320082     5.98098754    11.84767281     1.65779163     1.74580026     0.38367224
O       5.60224948     1.03795852     6.10868788     1.05764630    -0.68133076     0.49733638
O       2.12611307     5.98101592     5.86219336    -1.05764630     0.68133076    -0.49733638
O       0.88636501     4.26933820     3.23363366     0.49393044     0.81481272     1.14627560
O       6.84199761     2.74963609     8.73724759    -0.49393044    -0.81481272    -1.14627560
O       3.99187750     2.74957081     2.75184505     0.53182954     1.19186385     0.43038046
O       3.73648512     4.26940348     9.21903600    -0.53182954    -1.19186385    -0.43038046
O       0.35694573     0.75985084     2.75180676     0.49393044     0.81481272    -1.14627560
O       7.37141689     6.25912345     9.21907421    -0.49393044    -0.81481272     1.14627560
O       3.20706584     0.75991612     8.73728574    -0.53182954    -1.19186385     0.43038046
O       4.52129678     6.25905817     3.23359544     0.53182954     1.19186385    -0.43038046
