# total energy = -19937.91762923 eV

CRYSTAL
PRIMVEC
        6.95491771     0.00000000     0.00000000
        0.00002624     4.44128121     0.00000000
        0.00000000     0.00000000    10.62209977
PRIMCOORD
24 1
Ti      2.52083851     2.63189911     3.94072327     0.37021302     0.43881420     0.73114179
Ti      4.43410499     1.80938204     6.68137661    -0.37021302    -0.43881420    -0.73114179
Ti      5.99817771     1.80938353     1.37028423     0.37131191    -0.43849178    -0.73069493
Ti      0.95676585     2.63189779     9.25181571    -0.37131191     0.43849178     0.73069493
Ti      2.52082562     0.41125857     1.37032684     0.37021302     0.43881420    -0.73114179
Ti      4.43411788     4.03002270     9.25177316    -0.37021302    -0.43881420     0.73114179
Ti      0.95675290     0.41125696     6.68133400    -0.37131191     0.43849178    -0.73069493
Ti      5.99819060     4.03002431     3.94076582     0.37131191    -0.43849178     0.73069493
O       2.20128448     1.56385057     5.42037623     1.36618034     0.42989375    -0.41008416
O       4.75365908     2.87743052     5.20172365    -1.36618034    -0.42989375     0.41008416
O       1.27623328     1.56386850     0.10936048    -1.36464308     0.42941347    -0.41019601
O       5.67871034     2.87741265    10.51273907     1.36464308    -0.42941347     0.41019601
O       4.75364618     0.65678987     0.10932600    -1.36618034    -0.42989375    -0.41008416
O       2.20129738     3.78449123    10.51277354     1.36618034     0.42989375     0.41008416
O       5.67869739     0.65677199     5.42041064     1.36464308    -0.42941347    -0.41019601
O       1.27624606     3.78450916     5.20168918    -1.36464308     0.42941347     0.41019601
O       0.25270411     2.70143900     2.86929415    -1.34132059     0.54480102     0.96802301
O       6.70223944     1.73984210     7.75280568     1.34132059    -0.54480102    -0.96802301
O       3.73017098     1.73980081     2.44178953    -1.33908373    -0.54474523    -0.96850484
O       3.22477252     2.70148034     8.18031013     1.33908373     0.54474523     0.96850484
O       0.25269116     0.48079834     2.44175562    -1.34132059     0.54480102    -0.96802301
O       6.70225234     3.96048275     8.18034403     1.34132059    -0.54480102     0.96802301
O       3.22475963     0.48083968     7.75283953     1.33908373     0.54474523    -0.96850484
O       3.73018387     3.96044141     2.86926024    -1.33908373    -0.54474523     0.96850484
