# total energy = -19888.77460149 eV

CRYSTAL
PRIMVEC
        8.94370040     0.00000000     0.00000000
        0.00002994     4.58312678     0.00000000
        0.00000000     0.00000000    13.51251009
PRIMCOORD
24 1
Ti      3.24167912     2.71595677     5.01304487     0.37581160    -0.49717209     2.78846114
Ti      5.70205142     1.86717021     8.49946536    -0.37581160     0.49717209    -2.78846114
Ti      7.71337622     1.86717184     1.74315626     0.37546553     0.49711244    -2.78922553
Ti      1.23035438     2.71595535    11.76935417    -0.37546553    -0.49711244     2.78922553
Ti      3.24166421     0.42439345     1.74321045     0.37581160    -0.49717209    -2.78846114
Ti      5.70206639     4.15873366    11.76929998    -0.37581160     0.49717209     2.78846114
Ti      1.23033942     0.42439169     8.49941117    -0.37546553    -0.49711244    -2.78922553
Ti      7.71339112     4.15873543     5.01309906     0.37546553     0.49711244     2.78922553
O       2.83074829     1.61379692     6.89533048     0.77355524     1.32383323    -2.44082961
O       6.11298231     2.96933006     6.61717975    -0.77355524    -1.32383323     2.44082961
O       1.64117551     1.61381536     0.13911885    -0.77314026     1.32387179    -2.44191205
O       7.30255516     2.96931162    13.37339097     0.77314026    -1.32387179     2.44191205
O       6.11296734     0.67776668     0.13907503    -0.77355524    -1.32383323    -2.44082961
O       2.83076319     3.90536030    13.37343486     0.77355524     1.32383323     2.44082961
O       7.30254026     0.67774823     6.89537430     0.77314026    -1.32387179    -2.44191205
O       1.64119021     3.90537881     6.61713592    -0.77314026     1.32387179     2.44191205
O       0.32496366     2.78771755     3.65006607    -2.30737362     0.72976754     0.06010393
O       8.61876688     1.79540949     9.86244415     2.30737362    -0.72976754    -0.06010393
O       4.79682505     1.79536671     3.10623198    -2.30734637    -0.72979402    -0.05997692
O       4.14690549     2.78776033    10.40627804     2.30734637     0.72979402     0.05997692
O       0.32494876     0.49615410     3.10618884    -2.30737362     0.72976754    -0.06010393
O       8.61878185     4.08697288    10.40632119     2.30737362    -0.72976754     0.06010393
O       4.14689059     0.49619688     9.86248723     2.30734637     0.72979402    -0.05997692
O       4.79684002     4.08693010     3.65002293    -2.30734637    -0.72979402     0.05997692
