# total energy = -19960.21390078 eV

CRYSTAL
PRIMVEC
        7.60600008     0.00000000     0.00000000
        0.00000000     7.60600008     0.00000000
       -1.89786986    -1.89786986     4.85670466
PRIMCOORD
24 1
Ti      3.79279301     6.49368300     1.26775899     1.00008905    -0.56707295     0.33581448
Ti      3.76823098     2.76791003     1.19551402     0.56655590     0.08903399     1.51779681
Ti      0.08010500     6.73825602     1.34022801    -1.36146468    -0.28821100    -2.20802205
Ti      0.00858601     2.94392602     1.08392397    -0.15780306     0.44377257    -0.39995839
Ti      5.69714921     3.09067920     3.59903682    -2.30629556    -0.43336937    -0.64907832
Ti      5.76614921    -0.87060379     3.67619383    -1.28713534    -0.09109525    -0.80959312
Ti      1.73551723     2.78978124     3.61969982     1.64987288    -0.56260977    -0.45855205
Ti      1.89487324    -1.01133879     3.68267080     1.13325193    -0.10870243     0.65005688
O       3.77473198     4.62460900     0.76865001    -0.47269646     0.39037999     0.36618848
O       3.77058799     0.83917600     0.72594901    -0.14856482    -1.16244528     0.94333321
O       0.23413701     4.98538401     0.59168700    -0.70112055    -2.46727547     2.47047264
O       0.07269901     1.00540899     0.72794300    -0.22190943     0.76574114     1.02057638
O       5.83972025     4.88203722     4.10111083     0.10748655     0.81416120    -0.59711451
O       5.75203124     1.13661421     3.96701181    -0.54684813    -1.83237191     0.90805972
O       1.83582521     4.49090321     4.16422379    -0.58230289     2.83499633    -0.58871599
O       1.95564120     0.84494324     4.11985979    -0.21264265    -0.08642921    -1.50857091
O       3.73054620     2.91961424     3.25001781    -0.28058793    -0.29081476    -0.33431604
O       3.84731721    -1.24601578     3.27309882    -0.85614862     1.08802261    -0.34124902
O      -0.17923276     2.88387821     2.99480483     3.14939377     0.05903358     0.71126844
O      -0.01309978    -0.80828279     3.24491982     1.10998704    -0.06656949     0.52178553
O       5.76059502     6.49297898     1.64145999    -0.56639598     0.52697993    -0.05459534
O       5.58452198     2.90161798     1.63091402     0.94725003    -0.00140459    -1.48820494
O       1.87186498     6.39470002     1.74276399     1.34745036     0.83981028    -0.01290283
O       1.88357202     2.77883902     1.60994500    -1.30942142     0.10643985     0.00552093
