# total energy = -19515.45182093 eV

CRYSTAL
PRIMVEC
        5.17600016     0.00000000     0.00000000
        0.00000000     5.50899976     0.00000000
        0.00000000     0.00000000     9.26300011
PRIMCOORD
23 1
Ti      1.97563299     3.13047598     3.35458598    -2.04534135     1.76792744     1.55970169
Ti      3.29804699     2.19443302     5.94404400     1.53693559     1.12465905    -3.45444447
Ti      4.44012998     2.06497700     1.39732100     1.48831833     0.16937328     0.67433016
Ti      0.88487199     3.37583901     7.83290002    -2.21732842     0.82350614     0.25215281
Ti      1.99246199     0.27689200     1.35082701     1.11424453    -0.76475229     0.20325426
Ti      3.22060799     5.24730600     7.98241497     2.23099255    -0.93459789    -0.05237750
Ti      0.75071201     0.53657102     5.94195899    -1.41054217    -1.01531590    -3.30306120
Ti      4.39016898     4.85043799     3.34238300     4.26373292     0.79007793     4.31822361
O       1.81095398     2.05538799     4.72069097    -1.66619657    -3.18220645     2.27894621
O       3.60776798     3.53594402     4.37532201    -0.20207798    -0.93189412     1.48848776
O       4.77520703     3.07784200     9.25899598     0.56216266     0.63085305    -1.21928442
O       3.50722197     0.82295302     0.24000898     0.86368221    -0.42158240    -0.86882545
O       1.77052399     4.86585498     8.98203900    -2.04305049    -2.08255088     1.31598390
O       4.16049002     0.65560098     4.79265897     0.50514585     1.01501688     0.76354413
O       0.86166799     4.55927598     4.34176598     1.19573902     1.41246073     1.91410859
O       0.19705402     3.34413399     2.48417799     0.49691086    -1.13049314    -1.08433822
O       5.02994697     2.00213202     6.85179301     0.13182925     0.76859609    -0.26287894
O       2.78331898     1.88180299     2.17480203    -0.91301964     0.02389636     0.28483411
O       2.40681402     3.72162099     6.78395699     0.60858934    -0.06272697     0.77543446
O       0.40986699     0.58253001     2.18222898    -1.33152468     1.18786424    -1.17246564
O       4.99209302     4.94110901     7.27118302     0.81868403    -1.04793781    -0.29284593
O       2.37424502     0.99548898     7.05731598    -1.27051958     0.68896334    -0.28724838
O       2.92228003     4.52731400     2.40859799    -2.71736600     1.17086333    -3.83123155
