# total energy = -19923.25878008 eV

CRYSTAL
PRIMVEC
        4.52878344     0.00000000     0.00000000
        0.00002482     4.81999511     0.00000000
        0.00000000     0.00000000     8.10552654
PRIMCOORD
24 1
Ti      1.64148089     2.85632464     3.00709259    -0.14851263     1.49067757    -2.05118084
Ti      2.88732738     1.96367051     5.09843418     0.14851263    -1.49067757     2.05118084
Ti      3.90579332     1.96367217     1.04563840    -0.14285003    -1.49054619     2.04724885
Ti      0.62301494     2.85632317     7.05988846     0.14285003     1.49054619    -2.04724885
Ti      1.64146857     0.44632718     1.04567091    -0.14820307     1.48986382     2.04684982
Ti      2.88733970     4.37366811     7.05985596     0.14820307    -1.48986382    -2.04684982
Ti      0.62300262     0.44632539     5.09840167     0.14348998     1.48918942     2.05209075
Ti      3.90580564     4.37366991     3.00712510    -0.14348998    -1.48918942    -2.05209075
O       1.43339729     1.69720226     4.13618824    -3.59879088    -3.07512562    -0.54183577
O       3.09541097     3.12279294     3.96933854     3.59879088     3.07512562     0.54183577
O       0.83103839     1.69722167     0.08345094     3.59753619    -3.07610522    -0.53992518
O       3.69776992     3.12277353     8.02207560    -3.59753619     3.07610522     0.53992518
O       3.09539865     0.71279534     0.08342464     3.59813448     3.07542773    -0.54120148
O       1.43340961     4.10719981     8.02210190    -3.59813448    -3.07542773     0.54120148
O       3.69775760     0.71277593     4.13621454    -3.59801853     3.07593707    -0.54031059
O       0.83105061     4.10721927     3.96931224     3.59801853    -3.07593707     0.54031059
O       0.16455626     2.93179426     2.18950498    -1.29643426     0.75805817    -0.88579808
O       4.36425201     1.88820089     5.91602179     1.29643426    -0.75805817     0.88579808
O       2.42895161     1.88815597     1.86328417    -1.29674253    -0.75900459     0.88440505
O       2.09985666     2.93183919     6.24224246     1.29674253     0.75900459    -0.88440505
O       0.16454394     0.52179667     1.86325829    -1.29643271     0.75812450     0.88381498
O       4.36426432     4.29819849     6.24226835     1.29643271    -0.75812450    -0.88381498
O       2.09984434     0.52184159     5.91604762     1.29653093     0.75842429     0.88666094
O       2.42896393     4.29815357     2.18947910    -1.29653093    -0.75842429    -0.88666094
