# total energy = -79406.48667383 eV

CRYSTAL
PRIMVEC
       10.35150501     0.00002646     0.00000000
        0.00002858    11.01713167     0.00000000
        0.00000000     0.00000000     9.26345890
PRIMCOORD
95 1
Ti      7.01602082     8.82384887     3.47358370     0.02367370     0.03961943    -0.03223625
Ti      7.13618171     3.23497277     3.42326190     0.09255898    -0.02551384     0.00005374
Ti      1.84973742     8.80958559     3.45654940     0.01970340    -0.02440363    -0.04639095
Ti      1.77932891     3.16670771     3.48644505    -0.15506175    -0.36435399     0.29174755
Ti      8.48070976     7.73718832     5.80009839     0.08290834    -0.08423554     0.03233909
Ti      8.50508109     2.22235707     5.83348097    -0.09235457     0.04642617    -0.04962154
Ti      3.27682736     7.72893202     5.81609630     0.10058853    -0.11863589    -0.01955736
Ti      3.32182373     2.21273390     5.82441688     0.07853206    -0.07753550     0.16039447
Ti      9.54300196     7.78499290     1.20281402    -0.12721772    -0.13612814     0.09438009
Ti      9.65758589     2.17656632     1.15764902     0.04933332     0.07126792    -0.01622238
Ti      4.47286862     7.70165914     1.21173296    -0.14055481    -0.02821735     0.03528738
Ti      4.48652216     2.24020005     1.20993506    -0.05048594    -0.06663248    -0.05028051
Ti      5.89909504     8.80462371     8.09832425    -0.03290191     0.07839116     0.04639043
Ti      5.91713643     3.28342409     8.07616217     0.02338445     0.00887057     0.08823078
Ti      0.67598728     8.88342280     7.95629954    -0.06889711     0.30872301    -0.15416417
Ti      0.72567350     3.29560668     8.07850489     0.07527036     0.03578848    -0.03763505
Ti      7.03007307     6.01898537     1.18553339    -0.00491569     0.04610684     0.01183788
Ti      7.03121577     0.54186543     1.23195237    -0.04523601    -0.08514828    -0.11104959
Ti      1.75025610     6.27717522     0.97222088    -0.13765460     0.22429027    -0.15591124
Ti      1.88010226     0.51120815     1.17310179    -0.00580221    -0.01719580    -0.14825243
Ti      8.41592335    10.47778270     8.10410955     0.06027259     0.03013000    -0.03383856
Ti      8.50639369     4.96340396     8.09226420     0.00264104    -0.07290700     0.00793468
Ti      3.33099123    10.47226823     8.09799291    -0.03767259    -0.02207884    -0.05235848
Ti      3.31132704     4.95775361     8.08119120    -0.10902870    -0.06930180    -0.00385588
Ti      5.89885885     6.12333086     5.95456689     0.03370820     0.20563999     0.08847375
Ti      5.90227041     0.54718086     5.83174631    -0.08322355    -0.02077144    -0.03536708
Ti      0.73330468     6.02081977     5.81915325    -0.01656048     0.07998088    -0.09792256
Ti      0.71254973     0.53078331     5.84571038    -0.11910640    -0.22260645     0.15374560
Ti      9.63826435    10.49360953     3.45073839    -0.03015571     0.00354247    -0.09685992
Ti      9.65055099     5.00648335     3.39341860     0.07184873    -0.07159317     0.01272722
Ti      4.43160842    10.48196743     3.45428396     0.05089141    -0.08496419    -0.01181577
Ti      4.70557903     4.93654272     3.62172809     0.50778278    -0.07510864     0.25337768
O       6.82571759     7.44392700     4.74088576    -0.05436317     0.01805635    -0.03448493
O       6.83341747     1.93415170     4.72534524    -0.08344853    -0.04954235     0.00038695
O       1.63584924     7.45733654     4.75040971     0.01854640    -0.03844701    -0.06056699
O       1.60601321     1.89301740     4.71737964     0.01576627     0.11891665    -0.13537300
O       8.72274767     9.08650920     4.54108279    -0.05777991    -0.04912429    -0.00347793
O       8.75343950     3.56714231     4.53799020    -0.04303231    -0.00534893    -0.02463452
O       3.52998593     9.08307965     4.54490280    -0.01022939     0.00923926    -0.03548664
O       3.49476652     3.62126849     4.39808870    -0.29971001     0.11489030    -0.19372652
O       6.11872601     7.41585466     0.11760263    -0.10913129     0.02242363     0.00164191
O       6.12113675     1.91756516     0.08413647     0.00387800     0.02730435     0.06160905
O       0.90644641     7.46597809    -0.02312635    -0.11785247     0.12030119     0.00080527
O       0.94250644     1.91348804     0.08165832     0.08212055     0.01685770     0.07133760
O       9.37334166     9.11981539     9.16277136     0.15396234    -0.15134264     0.00924338
O       9.41376940     3.56546093     9.16301575    -0.02214415     0.03224807     0.02921546
O       4.20710241     9.05227951     9.18403054    -0.00697412     0.05376256     0.04747492
O       4.23303273     3.57361987     9.17703895     0.03055912     0.00782207     0.04367020
O       8.71088434     6.32496615     0.10878227    -0.03755817     0.03129419    -0.06732128
O       8.69565156     0.82446618     0.09291151     0.00421353    -0.01313706    -0.00854198
O       3.53092203     6.32431255     0.08369326     0.11330007    -0.05698030     0.02720820
O       3.53577120     0.81335029     0.11494066     0.00975271     0.05901044     0.04193856
O       6.78946106    10.18838038     9.18696621     0.08914249     0.01100175    -0.00143442
O       6.82567465     4.66670116     9.16535520     0.00723329     0.01711018     0.08038094
O       1.63130836    10.19380287     9.17491222    -0.07181171     0.06992735    -0.01605346
O       1.66126755     4.68734534     9.20335995     0.00749297    -0.22591932     0.02220483
O       9.41690039     6.30544800     4.72367984    -0.02635150     0.07022714     0.00621076
O       9.39440297     0.81462629     4.72987788     0.07176312    -0.00443464     0.01024096
O       4.22834005     6.33384090     4.74195728     0.05597834    -0.05505325     0.02118847
O       4.20761766     0.83417378     4.70850899     0.00819617     0.07897995     0.01772031
O       6.10927140    10.20072609     4.54586848     0.04893608    -0.03615409    -0.01133343
O       6.19832127     4.70232952     4.59576232    -0.17643765    -0.02924502    -0.07416016
O       0.94835274    10.18421248     4.53641142    -0.02622166    -0.01829109     0.02886913
O       1.04146027     4.74208744     4.43758142     0.01964812    -0.05531216    -0.04679230
O       5.34571725     8.84224840     2.51026004     0.06835357    -0.02220071     0.02864776
O       5.41977571     3.35339142     2.50994752    -0.01313860    -0.02228042     0.01654300
O       0.19709615     8.85780592     2.47865687    -0.06043997     0.03226479    -0.02684850
O       0.16554620     3.36861808     2.48548371     0.09345963     0.00704611    -0.07895526
O      10.16879583     7.66372831     6.73517089     0.03890158     0.03931295     0.07622809
O      10.17948378     2.13898752     6.77158482    -0.03399642     0.01479285    -0.04550957
O       4.98542537     7.66053034     6.78856038    -0.04194114    -0.11841966    -0.07415938
O       4.96455573     2.16178586     6.74542421     0.03852517     0.06911668    -0.02258226
O       7.92620886     7.66727276     2.13669934     0.08249285     0.04379464    -0.01734313
O       7.96273237     2.12290405     2.13814794     0.03434558     0.03062262     0.00732379
O       2.75154228     7.52136951     2.15154293     0.02168623     0.02305920     0.12919721
O       2.78363028     2.25960849     2.12404796    -0.03602734     0.07696549    -0.02248636
O       7.55125389     8.84228706     7.13278438     0.02743831     0.07683513     0.01931671
O       7.58328623     3.34039401     7.12286552    -0.02747713     0.09609656     0.09324932
O       2.38578760     8.87892448     7.12692518    -0.07577687     0.02860533    -0.02179576
O       2.39112519     3.34967024     7.09697848     0.11123728     0.07656619     0.06332835
O       5.33293642     6.04432573     2.14706947    -0.01836797     0.04706303    -0.05073585
O       5.35867642     0.59066243     2.14269995     0.02465149     0.03804771    -0.01758610
O       0.19807387     6.15163417     2.08633886     0.06694281    -0.11754471     0.10661520
O       0.20443284     0.61548714     2.15212943     0.02658445    -0.00684454    -0.02277793
O      10.12282839    10.43559984     7.10879843     0.09121635    -0.26255652     0.16016693
O      10.18087103     4.88551788     7.11909903    -0.00939841     0.08173874    -0.04579625
O       4.98490212    10.41486544     7.14532563     0.02176054     0.02107920    -0.04414843
O       4.99700671     4.89401722     7.13637422     0.02527550     0.04849951    -0.02659216
O       7.58736502     6.10428556     6.79400649    -0.10375254     0.00659283    -0.06159620
O       7.55142241     0.59898384     6.76852344     0.05771949     0.00385974     0.03635516
O       2.39576920     6.10483820     6.77778214    -0.00187639    -0.00516072    -0.02251104
O       2.40298900     0.60617942     6.74870932     0.08133019     0.13472637    -0.02990940
O       7.95499172    10.41290022     2.50573873    -0.04088595    -0.04361184     0.00639254
O       7.97246704     4.91550787     2.50123704    -0.04476627    -0.05542143    -0.03400542
O       2.77451338    10.38783548     2.48601536    -0.01778690     0.05486993    -0.00956476
