# total energy = -39031.70544334 eV

CRYSTAL
PRIMVEC
        5.93200024     0.00000000     0.00000000
        0.00000000     9.29399984     0.00000000
        0.00000000     0.00000000     9.29399984
PRIMCOORD
46 1
Ti      4.38607198     6.78472398     6.95090601     2.68812972    -0.96939547     1.26532698
Ti      4.55520698     6.92561700     2.36842602    -1.10864467     0.38803952     0.12966181
Ti      4.34077399     2.51091499     6.89894498     1.68524305     0.15455910    -0.66009601
Ti      4.28354299     2.44725301     2.02983201     0.45027798    -0.04736437     0.79492343
Ti      1.55756899     7.17142898     6.88051601    -2.72747712    -2.05612096     0.86254887
Ti      1.45901402     6.96794102     2.24073100     1.42060187     0.93617063     0.80135582
Ti      1.45061798     2.31450699     7.18077600    -1.98041891     0.67106023    -1.19777842
Ti      1.30614402     2.12925399     2.52201602     1.17345115     0.28676476    -0.78752148
Ti      3.09198299     4.67399600     4.63576501     0.69003601    -0.29376561     0.35452672
Ti      3.00948500     4.74404298     9.22996098    -0.15712634     0.38386842    -1.17332079
Ti      2.93615601     9.16736000     4.70390198     0.38721548     0.68404739    -0.23211105
Ti      2.92029201     0.00264398     0.01849199    -0.59211448    -0.05815169     0.37527424
Ti      0.21546399     4.66520298     4.60469400    -0.79866644    -1.21902782     1.40006286
Ti      0.01721599     4.62380597     0.06527602    -0.31615993     0.40002241    -1.88660832
Ti      5.89102398     9.25697601     4.80466399    -0.13283712    -0.19241320     0.60509933
Ti      5.85004698     9.05817501     9.18035701    -0.18984853     0.96087997    -0.22220125
O       4.55159699     5.69981002     5.48382601    -0.63257852    -0.47450086     0.25644192
O       4.57583098     5.83479202     0.61015502    -0.58666528    -0.73577389     2.00365038
O       4.40482899     0.83885998     5.66537100    -0.99904133     0.91352898    -1.34718939
O       4.38689898     0.74352801     0.77230800     1.13458582     1.62000642     1.43935756
O       1.67274199     5.66195998     5.36806700     0.43954953     0.84558601     0.94087807
O       1.39899701     5.54766801     0.96172298     0.78572608    -0.42390385     0.63048409
O       1.40959399     0.79215898     5.85352998     0.96912396     0.49988820    -1.78183686
O       1.50073202     0.85910699     0.83339601    -0.53039538     0.18963076     0.57159090
O       4.35948400     8.23631798     8.41656501     0.97524473     0.47695833     0.20529984
O       4.48360798     8.28263300     3.84306903    -1.01348502     1.06973024    -0.28442479
O       4.38406302     3.95779899     8.10314200    -0.32996727    -0.11145916     2.46466169
O       4.73888202     3.79555902     3.73291200    -1.58808565    -1.57662418    -1.82077469
O       1.56234900     8.07916101     8.51837199    -1.20246837     1.76470996    -0.53838097
O       1.34069401     8.16515999     3.88986301     1.62975451     1.85471172     0.37627800
O       1.52890198     3.98810201     8.28560300     0.05669670    -1.54502917     1.11615769
O       1.65838102     3.66537400     3.79754698    -0.65646407    -0.70421668    -1.57251787
O       2.87698198     6.07127498     7.85936502     0.28385375     0.49364325    -0.71663485
O       3.28774100     5.92190502     3.13147099    -1.51879157     0.17021429    -0.61079792
O       2.91906300     1.65169402     7.99824801     0.42333306    -1.00545726     0.08289420
O       3.03537600     1.50220901     3.03659999    -0.59451280    -0.67204111     0.71595299
O       0.05528701     5.94005199     7.83459100    -0.12105375     1.50459136    -1.15052101
O       0.05187599     6.11152601     3.46888499    -0.31296585     1.31999945    -3.63003134
O       5.76665500     1.59746001     7.93112902     1.20599747    -0.76001452     0.21133499
O       3.05644001     7.93085300     6.16508001    -0.14220674     0.60676103    -1.06541952
O       2.86177400     7.95677999     1.49311801     0.67354880    -0.86780112     0.76277974
O       2.87857999     3.38155899     6.05759300     0.28242499    -1.09449305     0.00641799
O       5.79726102     8.13505599     6.20400502     0.97768985    -2.47864593     1.32506401
O       0.09854498     8.04994498     1.50589102    -0.28292353    -1.12628090     0.10932026
O       5.88975502     3.43565398     6.07047598     0.18667219    -1.34929333     0.45718731
O       0.02809301     2.84625900     1.29341101    -0.00425801     1.56640199     0.41363512
