# total energy = -19893.76576773 eV

CRYSTAL
PRIMVEC
        8.76901875     0.00000000     0.00000000
        0.00002935     4.49361258     0.00000000
        0.00000000     0.00000000    13.24859388
PRIMCOORD
24 1
Ti      3.17836507     2.66291074     4.91513384     0.35572280    -0.46661529     2.79695941
Ti      5.59068323     1.83070204     8.33346017    -0.35572280     0.46661529    -2.79695941
Ti      7.56272434     1.83070364     1.70911024     0.35231248     0.46695030    -2.79808453
Ti      1.20632403     2.66290934    11.53948397    -0.35231248    -0.46695030     2.79808453
Ti      3.17835046     0.41610451     1.70916337     0.35572280    -0.46661529    -2.79695941
Ti      5.59069791     4.07750840    11.53943084    -0.35572280     0.46661529     2.79695941
Ti      1.20630935     0.41610279     8.33340704    -0.35231248    -0.46695030    -2.79808453
Ti      7.56273895     4.07751013     4.91518697     0.35231248     0.46695030     2.79808453
O       2.77546024     1.58227744     6.76065606     0.87819892     1.30411954    -2.40580577
O       5.99358813     2.91133534     6.48793795    -0.87819892    -1.30411954     2.40580577
O       1.60912131     1.58229553     0.13640169    -0.87847840     1.30454326    -2.40660462
O       7.15992713     2.91131725    13.11219192     0.87847840    -1.30454326     2.40660462
O       5.99357345     0.66452904     0.13635872    -0.87819892    -1.30411954    -2.40580577
O       2.77547485     3.82908373    13.11223496     0.87819892     1.30411954     2.40580577
O       7.15991252     0.66451096     6.76069903     0.87847840    -1.30454326    -2.40660462
O       1.60913572     3.82910188     6.48789498    -0.87847840     1.30454326     2.40660462
O       0.31861671     2.73326994     3.57877572    -2.30716974     0.72820302     0.08515960
O       8.45043159     1.76034290     9.66981829     2.30716974    -0.72820302    -0.08515960
O       4.70313706     1.76030096     3.04556339    -2.30688383    -0.72827707    -0.08607414
O       4.06591124     2.73331189    10.20303042     2.30688383     0.72827707     0.08607414
O       0.31860210     0.48646359     3.04552109    -2.30716974     0.72820302    -0.08515960
O       8.45044626     4.00714919    10.20307272     2.30716974    -0.72820302     0.08515960
O       4.06589663     0.48650553     9.66986053     2.30688383     0.72827707    -0.08607414
O       4.70315174     4.00710725     3.57873342    -2.30688383    -0.72827707     0.08607414
