# total energy = -19939.40172612 eV

CRYSTAL
PRIMVEC
        5.49510129     0.00000000     0.00000000
        2.75223495     5.16038465     0.00000000
        0.00000000     0.00000000    10.17745373
PRIMCOORD
24 1
Ti      3.62268182     3.05803917     3.77576276     2.49890751    -4.10472118     0.96523825
Ti      4.62465455     2.10234561     6.40169108    -2.49890751     4.10472118    -0.96523825
Ti      5.86043412     2.10234745     1.31292350    -5.44058512     0.23687839     1.31166008
Ti      2.38690243     3.05803757     8.86453040     5.44058512    -0.23687839    -1.31166008
Ti      2.24656456     0.47784702     1.31296432     2.49890751    -4.10472118    -0.96523825
Ti      6.00077192     4.68253796     8.86448963    -2.49890751     4.10472118     0.96523825
Ti      1.01078491     0.47784503     6.40165025     5.44058512    -0.23687839     1.31166008
Ti      7.23655157     4.68253989     3.77580353    -5.44058512     0.23687839    -1.31166008
O       2.70834302     1.81705920     5.19347676     0.87507709     1.66993392    -1.32476345
O       5.53899343     3.34332562     4.98397708    -0.87507709    -1.66993392     1.32476345
O       1.97746838     1.81707997     0.10478260     1.40872826    -0.93508280     0.37828835
O       6.26986813     3.34330489    10.07267092    -1.40872826     0.93508280    -0.37828835
O       4.16287606     0.76313327     0.10474957    -0.87507709    -1.66993392    -1.32476345
O       4.08446037     4.39725150    10.07270395     0.87507709     1.66993392     1.32476345
O       4.89375076     0.76311254     5.19350973    -1.40872826     0.93508280     0.37828835
O       3.35358563     4.39727229     4.98394405     1.40872826    -0.93508280    -0.37828835
O       1.87371503     3.13883843     2.74918416     0.60941364     0.82110370     0.88754000
O       6.37362142     2.02154638     7.42826963    -0.60941364    -0.82110370    -0.88754000
O       4.02535541     2.02149819     2.33957508     1.64039348     0.33384116    -0.48090111
O       4.22198103     3.13888663     7.83787854    -1.64039348    -0.33384116     0.48090111
O       0.49759766     0.55864608     2.33954260     0.60941364     0.82110370    -0.88754000
O       7.74973877     4.60173868     7.83791103    -0.60941364    -0.82110370     0.88754000
O       2.84586366     0.55869428     7.42830206    -1.64039348    -0.33384116    -0.48090111
O       5.40147277     4.60169049     2.74915167     1.64039348     0.33384116     0.48090111
