# total energy = -39034.57188242 eV

CRYSTAL
PRIMVEC
        7.60600008     0.00000000     0.00000000
        0.00000000     7.60600008     0.00000000
       -3.79573973    -3.79573973     9.71340985
PRIMCOORD
46 1
Ti      1.94405048     5.13361444     5.95223963     0.17999786    -0.20440792     0.38863601
Ti      3.88166499     6.52674298     1.30717401    -0.34189386     1.01538378    -0.42712313
Ti      1.78735543     1.21339745     6.12915263     0.48358586    -0.27369198    -1.74685184
Ti      3.74980598     2.52486601     1.32392798     0.70745935     1.40931370    -1.26878949
Ti     -1.86907453     4.70606843     6.01631665     0.24010719     1.12899521     0.14740371
Ti      0.09098700     6.52297502     1.32812298     0.14796216     1.04147046    -1.89724935
Ti     -2.05508054     0.94941447     6.09367664    -2.18857782    -0.99037748    -0.88810127
Ti      0.03398302     2.68825001     1.15295800    -0.64076800    -1.63055901     0.88407209
Ti      3.67969444     0.76807845     8.57928463     0.24820745     1.21962715     0.47707300
Ti      5.66179302     2.86569500     3.62530603     0.37639756     0.24551242    -0.46707629
Ti      3.80083047    -2.99820855     8.38491460     0.17062413    -1.22456058     0.58250523
Ti      5.85272801    -0.81555702     3.66644802    -1.16081803    -0.87011974     0.29312592
Ti     -0.15884557     0.80836445     8.35356265    -0.07427637     0.83008713     1.61940016
Ti      1.78087999     3.01456901     3.61309801     0.80706470     0.41331193     0.46029911
Ti     -0.05260154    -2.97525257     8.45823163     0.54948789     0.30383149     0.56873749
Ti      1.99013499    -0.61416301     3.65132498     0.84286321    -0.17591469     0.59097882
O       1.93061546    -0.59251453     5.57185263    -0.60433571    -2.64363702    -0.38827015
O       3.70434801     0.81111998     0.82673198    -0.13409902    -1.47795858    -0.81315410
O      -1.86296454     2.82446547     5.49843463     0.02160730    -0.07509604     2.06042576
O       0.07320299     4.62337099     0.79630503    -0.98854839    -0.44198360    -0.40627816
O      -2.19916757    -0.99953756     5.68014664     0.66959162     2.20455209    -0.00046228
O       0.04158402     0.80199998     0.89972298     0.62915509     1.12930812    -0.38329172
O       3.79743146     2.82550843     8.99749765    -0.09412195    -1.07749806    -0.13011175
O       5.89992300     4.88083700     4.19799398     0.35270149    -1.32063015    -2.62880226
O       3.85836246    -1.17017653     8.89341562    -0.55396984     1.86852060     0.64176096
O       5.64010702     0.94092398     4.03969002    -0.21307460     0.70267838     0.46306974
O      -0.15061655     2.65606646     8.92767964     0.76185157     0.00375176    -0.54058750
O       2.16816598     4.81587901     4.02464202    -1.09343993     0.86688349     1.37939736
O       0.14652347    -0.87677257     9.05387365    -0.45173168    -0.56311602     0.31158285
O       2.22808102     1.31709101     4.19209402    -0.72125770    -0.76545549    -1.62470229
O       1.92828248     0.90828846     7.91899562    -1.28318844     0.05661468     2.41036254
O       3.79297002     3.04158801     3.06644701     1.02713604     0.32447797     1.94724241
O       2.02817246    -2.94048954     7.87552561    -1.80766283    -0.14332517     0.62853571
O       3.94137000    -0.90024602     3.16222799    -0.99631981     0.01391147     0.71936356
O      -2.15002457     0.92560647     8.09370862     1.15217038    -0.40053688    -0.77673878
O       0.01879198     2.56164700     3.40794599    -1.01237584     1.23546798    -0.89080144
O      -1.85812955    -2.78088656     8.01561762     1.30336030    -0.58663597     0.61352483
O       0.14300301    -0.58733600     3.24540899    -0.11816974    -0.54380729     0.53286878
O       3.91579946     4.60566647     6.41627363    -1.27287600    -0.04806319    -0.16949927
O       5.80497601     6.72316802     1.66000199    -0.46659960    -1.33670315    -0.07253085
O       3.56828443     1.04744847     6.15074762     3.14046098     1.01605895     1.86142461
O       5.68897898     2.62508001     1.72079800     0.98935624     0.47424221    -1.32834346
O       0.11946547    -2.44301954     6.40391162    -0.68306214    -1.28384279     0.60260536
O       1.93523698     6.31442801     1.67355602     1.19027979     0.46567863     0.15319358
O      -0.22379155     0.84160345     6.54953062     1.18207849     0.40259814    -1.32859928
O       1.85793201     2.87859798     1.74871602    -0.27233880    -0.29435697    -2.16022497
