# total energy = -19959.43657337 eV

CRYSTAL
PRIMVEC
        7.60600008     0.00000000     0.00000000
        0.00000000     7.60600008     0.00000000
       -1.89786986    -1.89786986     4.85670466
PRIMCOORD
24 1
Ti      3.78032898     6.62704403     1.17035301    -1.03106083     1.85545323     0.02623503
Ti      3.97023302     2.95506801     1.15617699     0.42737638    -2.27738478     0.09243274
Ti     -0.18421401     6.72782102     1.26637201     1.73051659    -0.24963853     0.75103905
Ti      0.04740698     2.91003598     1.35008701    -0.72225580    -1.08629380    -1.54843897
Ti      5.73622022     2.79791924     3.80521280    -0.61429359    -2.07983991    -1.36753634
Ti      5.54269422    -1.07469777     3.65026483     0.78094768     1.86646886     0.56168392
Ti      2.01869225     2.88944421     3.59734181     0.56600954    -0.69681472    -0.96963767
Ti      1.88344523    -0.93902175     3.58076179    -1.01531025     0.29243121     0.61255501
O       3.86156800     4.79019798     0.81988998    -0.33016191     0.56617435    -1.31326367
O       3.91771302     0.98666702     0.70913101    -0.51564084    -1.34779515     0.60636637
O      -0.23261198     4.72874600     0.98457200     1.52337662     0.75839807    -2.26708339
O       7.21376401     0.96205599     0.82230901     1.26574941     0.52502126    -1.06460088
O       5.65710721     4.65091620     4.06765682     0.20347281     1.21808680     0.43452097
O       5.75999022     0.89969123     3.77272782     0.17028988     0.26971911     2.06914180
O       2.04684321     4.76296123     3.93604981    -0.36804764    -1.89137001     0.98107959
O       1.97763122     0.86510521     3.99145281     0.07398069     2.52745885     0.37234138
O       3.97232221     2.55439124     3.05879283    -1.31270266     1.04076032     1.39414315
O       3.72374522    -1.03233777     3.11567283     1.51535066    -0.00967635     0.28016499
O       0.09777825     2.63384022     3.11737582    -0.64412766     0.62457955     2.33443270
O       0.01262522    -0.94470178     3.17362684    -1.46493028    -0.41713670     0.75496667
O       5.65531902     6.78408298     1.74117000    -1.24613600    -1.05413906    -0.79624369
O       5.74797499     3.23337201     1.56626301    -0.41991812    -1.52512471     0.69068958
O       1.80873901     6.47733899     1.67701800     1.06310501     0.81984745    -2.13826439
O       1.95315899     2.91972701     1.66692802     0.36441004     0.27081465    -0.49672369
