# total energy = -19960.99322374 eV

CRYSTAL
PRIMVEC
        7.60600008     0.00000000     0.00000000
        0.00000000     7.60600008     0.00000000
       -1.89786986    -1.89786986     4.85670466
PRIMCOORD
24 1
Ti      3.87016301     6.59195000     1.08372400    -0.64435880     0.42895941     2.22269817
Ti      3.78316098     2.69974999     1.21919099     0.22132116    -0.12821839     0.43350641
Ti     -0.05237400     6.69040602     1.19868500     0.32971633     1.55811429     0.01469309
Ti     -0.01050300     2.95842199     1.27216698    -0.20936347    -1.73319234    -1.00330242
Ti      5.64894920     2.94440323     3.67781380    -0.58108470    -0.54504759    -0.77639682
Ti      5.70547523    -0.84993375     3.66028380    -1.19765783     0.31006667     0.39558185
Ti      1.83734522     2.75975921     3.72169582     1.34801215    -0.20533917    -1.07855915
Ti      1.93276821    -0.98886675     3.64388581     1.39525233     0.23715582    -1.40184438
O       3.97159401     4.73202098     0.73699802    -0.63052240    -1.47712091     0.45614755
O       4.03700698     0.86748000     0.73519802    -0.72641070     1.39273342    -0.11004608
O      -0.13793899     4.81859898     0.82860601     0.62223882    -0.08947699    -0.11610926
O      -0.16752498     1.05878599     0.76571900     0.68745796    -1.28494708     0.12569177
O       5.45571421     4.86125522     4.04136682     0.92021719    -1.22084714     0.26784477
O       5.55231922     1.01766421     4.10556581     0.89894387     0.95749794     0.08242343
O       2.13361822     4.74247122     4.05553179    -0.82001740    -0.51417043    -1.15961115
O       2.02225721     0.89417620     4.04279079    -0.89145682     0.45261305     0.57861798
O       3.81230324     2.82039520     3.16935982    -0.47923298     0.22652918    -0.30231428
O       3.80049523    -0.81550675     3.19430380    -0.66670247    -0.42859997    -0.47530356
O       0.03786724     2.90354921     3.25647583    -0.26313734     0.47398047     0.72329427
O      -0.01931878    -0.89075877     3.16478979     1.18427884    -0.18203957     0.50625811
O       5.69489200     6.70177899     1.69033401     0.39450893    -0.30364920    -0.52387018
O       5.76692599     2.72421501     1.69901299    -0.89298740     0.75326923     0.36855492
O       1.97384199     6.64241202     1.45392402    -0.87752606    -0.12826724     0.57951658
O       1.87243602     2.45596401     1.57722100     0.87851105     1.44999628     0.19252890
