# total energy = -19908.25888275 eV

CRYSTAL
PRIMVEC
        8.24497380     0.00000000     0.00000000
        0.00002760     4.22507000     0.00000000
        0.00000000     0.00000000    12.45684524
PRIMCOORD
24 1
Ti      2.98842293     2.50377265     4.62140074     0.28023698    -0.30532787     2.73569566
Ti      5.25657865     1.72129754     7.83544463    -0.28023698     0.30532787    -2.73569566
Ti      7.11076870     1.72129904     1.60697218     0.27978138     0.30558164    -2.73625693
Ti      1.13423295     2.50377133    10.84987337    -0.27978138    -0.30558164     2.73625693
Ti      2.98840920     0.39123771     1.60702213     0.28023698    -0.30532787    -2.73569566
Ti      5.25659245     3.83383260    10.84982342    -0.28023698     0.30532787     2.73569566
Ti      1.13421915     0.39123609     7.83539467    -0.27978138    -0.30558164    -2.73625693
Ti      7.11078244     3.83383422     4.62145069     0.27978138     0.30558164     2.73625693
O       2.60959608     1.48771903     6.35663279     1.31085815     1.13494501    -2.09105995
O       5.63540557     2.73735115     6.10021258    -1.31085815    -1.13494501     2.09105995
O       1.51295868     1.48773603     0.12825019    -1.31137366     1.13535818    -2.09290215
O       6.73204304     2.73733415    12.32859480     1.31137366    -1.13535818     2.09290215
O       5.63539177     0.62481615     0.12820979    -1.31085815    -1.13494501    -2.09105995
O       2.60960982     3.60025403    12.32863526     1.31085815     1.13494501     2.09105995
O       6.73202930     0.62479915     6.35667319     1.31137366    -1.13535818    -2.09290215
O       1.51297223     3.60027109     6.10017218    -1.31137366     1.13535818     2.09290215
O       0.29957587     2.56992712     3.36490466    -2.15715507     0.67959553     0.19030001
O       7.94542572     1.65514313     9.09194070     2.15715507    -0.67959553    -0.19030001
O       4.42207309     1.65510369     2.86355761    -2.15563374    -0.67956981    -0.19029976
O       3.82292850     2.56996656     9.59328757     2.15563374     0.67956981     0.19029976
O       0.29956214     0.45739206     2.86351783    -2.15715507     0.67959553    -0.19030001
O       7.94543951     3.76767813     9.59332734     2.15715507    -0.67959553     0.19030001
O       3.82291476     0.45743150     9.09198042     2.15563374     0.67956981    -0.19029976
O       4.42208689     3.76763869     3.36486488    -2.15563374    -0.67956981     0.19029976
