# total energy = -4988.66464741 eV

CRYSTAL
PRIMVEC
        4.37171898     0.00000000     0.00000000
       -0.00000814     3.57686078     0.00000000
       -2.18588866    -1.78847127     5.12331067
PRIMCOORD
6 1
Ti     -0.00018974     2.68277890     1.28082781    -0.00174835    -0.00269657     3.84405442
Ti      2.18601192    -0.89438960     3.84248303     0.00174835     0.00269657    -3.84405442
O       0.00004510     0.89420767     0.83454550     0.00033322     0.00111252    -0.80159339
O       2.18577697     0.89418152     4.28876539    -0.00033322    -0.00111252     0.80159339
O      -0.00002115    -0.89419953     3.39620073    -0.00198412    -0.00033347    -1.30430055
O       2.18584310     2.68258872     1.72711011     0.00198412     0.00033347     1.30430055
