# total energy = -19880.05287420 eV

CRYSTAL
PRIMVEC
        9.38363957     0.00000000     0.00000000
        0.00003073     4.28015565     0.00000000
        0.00000000     0.00000000    14.28116600
PRIMCOORD
24 1
Ti      3.40113607     2.53641630     5.29821073     0.30688982    -0.37480553     2.68804256
Ti      5.98253381     1.74373943     8.98295548    -0.30688982     0.37480553    -2.68804256
Ti      8.09279525     1.74374089     1.84231525     0.30629718     0.37551361    -2.68592731
Ti      1.29087463     2.53641497    12.43885109    -0.30629718    -0.37551361     2.68592731
Ti      3.40112092     0.39633854     1.84237254     0.30647715    -0.37541128    -2.68523054
Ti      5.98254897     3.88381725    12.43879380    -0.30647715     0.37541128     2.68523054
Ti      1.29085948     0.39633694     8.98289819    -0.30642727    -0.37466721    -2.68875733
Ti      8.09281041     3.88381885     5.29826802     0.30642727     0.37466721     2.68875733
O       2.96999188     1.50711555     7.28756975     0.75547112     1.10560948    -2.50813829
O       6.41367800     2.77304010     6.99359646    -0.75547112    -1.10560948     2.50813829
O       1.72190419     1.50713282     0.14703259    -0.75633758     1.10627488    -2.51004245
O       7.66176576     2.77302290    14.13413320     0.75633758    -1.10627488     2.51004245
O       6.41366291     0.63296227     0.14698627    -0.75562719    -1.10603320    -2.50852010
O       2.97000697     3.64719345    14.13417953     0.75562719     1.10603320     2.50852010
O       7.66175067     0.63294501     7.28761608     0.75646125    -1.10617229    -2.51012035
O       1.72191914     3.64721071     6.99355013    -0.75646125     1.10617229     2.51012035
O       0.34094788     2.60343328     3.85769925    -2.15731936     0.65598662    -0.03522515
O       9.04272201     1.67672237    10.42346696     2.15731936    -0.65598662     0.03522515
O       5.03277960     1.67668250     3.28292925    -2.15679974    -0.65614448     0.03349943
O       4.35089029     2.60347323    10.99823675     2.15679974     0.65614448    -0.03349943
O       0.34093279     0.46335545     3.28288368    -2.15782818     0.65620619     0.03352308
O       9.04273710     3.81680027    10.99828232     2.15782818    -0.65620619    -0.03352308
O       4.35087520     0.46339533    10.42351246     2.15695118     0.65606709     0.03484797
O       5.03279469     3.81676039     3.85765368    -2.15695118    -0.65606709    -0.03484797
