# total energy = -19958.57639148 eV

CRYSTAL
PRIMVEC
        5.93400000     0.00000000     0.00000000
        0.00000000     9.29699974     0.00000000
        0.00000000     0.00000000     4.64899994
PRIMCOORD
24 1
Ti      4.36957001     6.73655599     2.25632803     1.32814651     0.74533172     0.95860660
Ti      4.50514798     2.38028198     2.30563898    -0.84465732    -3.33364706     1.20045802
Ti      1.49910898     7.02348103     2.25235703    -0.89308073    -0.02817596     0.62264094
Ti      1.50288699     2.54740901     2.31097902    -0.51263702    -3.15419093     0.90404417
Ti      2.91831601     4.64956098     4.63713198    -0.30518209    -1.83755937     0.26046442
Ti      2.95245498     9.13630100     4.52138499    -0.46204772     3.28928703     0.18512181
Ti      5.91542498     4.68379599     0.08446902     1.17630636    -1.40476027    -1.12173853
Ti      0.02548301     9.15553500     0.19708101     0.04571140     3.25660495     0.16747787
O       4.50881401     5.59744200     0.80768101    -1.30377167     2.00371492     1.44738481
O       4.55431003     1.09134600     0.89424499    -0.16419225    -1.17123948    -0.42759595
O       1.47105100     5.60610500     0.88283302     0.29083276     0.00334295    -0.21872023
O       1.53163301     0.84466098     0.80557499     0.22263910     0.22998501     0.47201461
O       4.55163001     8.51251903     3.82193300    -0.88144982    -1.81215815    -1.48822422
O       4.44859697     3.75750202     3.98622999     0.06463010    -0.44437961    -1.55898769
O       1.45231500     8.46634402     3.70841098     0.33911706    -1.54805176    -0.80637718
O       1.51648801     3.61953101     3.87433398    -0.56491914     1.53829519     0.77266281
O       2.82444198     5.98622699     3.31412102     1.88888581     1.47077800    -1.69650834
O       2.86363798     1.49127700     3.12515002     0.80985640    -0.61997316     0.46753420
O       0.20032301     6.02722299     3.01726602    -2.99875535    -1.39997622     2.39354392
O       0.12207902     1.48980102     3.06543401    -1.29528214     0.18065195     0.39133593
O       2.98502701     7.80896999     1.39997900     1.65197527    -0.03135950    -0.02049016
O       2.92824502     3.36356898     1.51593301     1.06399385     1.49779156    -1.04599509
O       5.91434599     7.76336798     1.45979699    -0.98398828     1.05420565    -0.60483733
O       5.72840602     3.46707398     1.57826898     2.32786944     1.51548256    -1.25381486
