# total energy = -19912.02976278 eV

CRYSTAL
PRIMVEC
        6.51590654     0.00000000     0.00000000
        2.03472054     6.62968169     0.00000000
        0.00000000     0.00000000    11.79847223
PRIMCOORD
24 1
Ti      3.56747620     3.92874327     4.37714905    -0.28280371    -1.95202750     0.64938788
Ti      4.98315077     2.70093858     7.42132325     0.28280371     1.95202750    -0.64938788
Ti      6.44849617     2.70094086     1.52203996     0.09480201    -0.67999610    -0.12670427
Ti      2.10213090     3.92874124    10.27643247    -0.09480201     0.67999610     0.12670427
Ti      2.55011608     0.61390253     1.52208727    -0.28280371    -1.95202750    -0.64938788
Ti      6.00051092     6.01577951    10.27638517     0.28280371     1.95202750     0.64938788
Ti      1.08477065     0.61390005     7.42127595    -0.09480201     0.67999610    -0.12670427
Ti      7.46585635     6.01578199     4.37719635     0.09480201    -0.67999610     0.12670427
O       2.77878522     2.33442367     6.02067008     1.82075103     2.04324307    -0.66720383
O       5.77184176     4.29525824     5.77780223    -1.82075103    -2.04324307     0.66720383
O       1.91213370     2.33445042     0.12147191    -0.62094941    -0.14174343     1.15107200
O       6.63849336     4.29523154    11.67700006     0.62094941     0.14174343    -1.15107200
O       4.75448161     0.98041730     0.12143363    -1.82075103    -2.04324307    -0.66720383
O       3.79614537     5.64926461    11.67703834     1.82075103     2.04324307     0.66720383
O       5.62113321     0.98039061     6.02070835     0.62094941     0.14174343     1.15107200
O       2.92949372     5.64929137     5.77776395    -0.62094941    -0.14174343    -1.15107200
O       1.47437033     4.03254828     3.18706170     0.54968046     1.98405960     2.00876534
O       7.07625665     2.59713363     8.61141060    -0.54968046    -1.98405960    -2.00876534
O       4.29177333     2.59707181     2.71221197     0.63372291     1.83716702     1.09752927
O       4.25885365     4.03261009     9.08626013    -0.63372291    -1.83716702    -1.09752927
O       0.45701012     0.71770735     2.71217429     0.54968046     1.98405960    -2.00876534
O       8.09361679     5.91197456     9.08629782    -0.54968046    -1.98405960     2.00876534
O       3.24149350     0.71776916     8.61144822    -0.63372291    -1.83716702     1.09752927
O       5.30913348     5.91191275     3.18702401     0.63372291     1.83716702    -1.09752927
