# total energy = -4988.09477737 eV

CRYSTAL
PRIMVEC
        3.52457366     0.00000000     0.00000000
        0.00000000     3.68165234     0.00000000
        0.00000000    -0.00006435     4.79381773
PRIMCOORD
6 1
Ti      1.76228668     1.84079395     2.39690881     0.00000000     0.00000000     0.00000000
Ti      0.00000000     0.00000000     0.00000000     0.00000000     0.00000000     0.00000000
O       1.76228668     0.71748727     0.93424445     0.00000000    -0.43884248    -0.21607173
O       1.76228668     2.96410063     3.85957312     0.00000000     0.43884248     0.21607173
O       0.00000000     1.12328094     3.33115431     0.00000000     0.43822233    -0.21562616
O       0.00000000     2.55830696     1.46266332     0.00000000    -0.43822233     0.21562616
