# total energy = -19900.70893436 eV

CRYSTAL
PRIMVEC
        8.40542189     0.00000000     0.00000000
        0.00002646     3.39327655     0.00000000
        0.00000000     0.00000000    13.00949740
PRIMCOORD
24 1
Ti      3.04657696     2.01085250     4.82643077     0.00886594     0.00974243     2.21963007
Ti      5.35887163     1.38242394     8.18306675    -0.00886594    -0.00974243    -2.21963007
Ti      7.24914445     1.38242509     1.67826601     0.00883509    -0.00967661    -2.21992266
Ti      1.15630415     2.01085152    11.33123162    -0.00883509     0.00967661     2.21992266
Ti      3.04656384     0.31421428     1.67831817     0.00886594     0.00974243    -2.21963007
Ti      5.35888475     3.07906227    11.33117946    -0.00886594    -0.00974243     2.21963007
Ti      1.15629103     0.31421307     8.18301459    -0.00883509     0.00967661    -2.21992266
Ti      7.24915756     3.07906349     4.82648292     0.00883509    -0.00967661     2.21992266
O       2.66037853     1.19483034     6.63864693     2.49618086     0.46760336    -1.52815861
O       5.74507012     2.19844610     6.37085059    -2.49618086    -0.46760336     1.52815861
O       1.54240038     1.19484400     0.13394007    -2.49558179     0.46768050    -1.52855662
O       6.86304833     2.19843243    12.87555709     2.49558179    -0.46768050     1.52855662
O       5.74505701     0.50180782     0.13389787    -2.49618086    -0.46760336    -1.52815861
O       2.66039158     2.89146861    12.87559929     2.49618086     0.46760336     1.52815861
O       6.86303521     0.50179415     6.63868918     2.49558179    -0.46768050    -1.52855662
O       1.54241332     2.89148234     6.37080833    -2.49558179     0.46768050     1.52855662
O       0.30540454     2.06398315     3.51418979    -1.34374129     0.38483129     0.51266865
O       8.10004405     1.32929329     9.49530773     1.34374129    -0.38483129    -0.51266865
O       4.50812655     1.32926175     2.99060028    -1.34388501    -0.38466597    -0.51262905
O       3.89732210     2.06401475    10.01889700     1.34388501     0.38466597     0.51262905
O       0.30539142     0.36734487     2.99055873    -1.34374129     0.38483129    -0.51266865
O       8.10005717     3.02593157    10.01893855     1.34374129    -0.38483129     0.51266865
O       3.89730899     0.36737641     9.49534915     1.34388501     0.38466597    -0.51262905
O       4.50813966     3.02590003     3.51414830    -1.34388501    -0.38466597     0.51262905
