# total energy = -39035.01144619 eV

CRYSTAL
PRIMVEC
        5.93200024     0.00000000     0.00000000
        0.00000000     9.29399984     0.00000000
        0.00000000     0.00000000     9.29399984
PRIMCOORD
46 1
Ti      4.41481599     6.84225898     6.88847098     1.93393386     1.01509196    -1.05491913
Ti      4.40611600     6.95164902     2.41257798     1.47382424    -0.84694921     1.10726758
Ti      4.41100099     2.40642698     7.07653702     0.57603736     0.13590831    -1.65691282
Ti      4.32566201     2.45065699     2.12979100     0.47101959    -0.23360229     1.02965186
Ti      1.53028102     6.93899100     7.02298101    -2.19360612     0.58626702    -1.79047885
Ti      1.52269701     7.07364899     2.27380400    -1.18717750    -0.91702851     0.80334945
Ti      1.48423699     2.22631299     7.01111098    -0.72902294     1.71694682     0.35246778
Ti      1.40401800     2.12904597     2.51203600     0.49113951     0.32975284    -0.89181086
Ti      2.98618802     4.72190200     4.54304898     0.59808407    -1.46620812     1.25300779
Ti      2.98126800     4.83591498     9.10049300    -0.93588318    -0.93865201     0.51653456
Ti      3.01540300     9.26396300     4.81418903     0.25556826     0.93343858    -1.13671830
Ti      3.01540300     9.21177501     0.01002098     0.14628785     0.95158517    -0.34129659
Ti      0.11007400     4.64136799     4.48337900    -0.50298947    -0.87919677     0.67727613
Ti      0.03553102     4.68883397     9.23174600     0.73268780    -0.68451636     0.21055003
Ti      5.92407602     9.24709701     4.83601103    -0.38428596    -0.54216898     0.25172086
Ti      0.00844302     9.19746701     0.09914501    -0.12109900     1.31892165    -0.84156866
O       4.35407200     5.75761200     5.32380101     0.88879521    -0.25005376     1.03167070
O       4.39844902     5.52153698     0.80412801     0.19942281     0.47705937     0.97401806
O       4.42462001     0.79506702     5.83723502     0.05566492     0.30350367    -1.18736673
O       4.34375500     0.89082503     0.87839899     0.71025260     0.54518900     0.61912290
O       1.47600801     5.63510799     5.42469600    -0.18329915    -0.38529615     0.20433876
O       1.53402902     5.58474900     0.79167901    -0.38394812     0.25692632     0.52154333
O       1.51550501     1.00686100     5.58158499    -0.49085720    -0.68559005    -1.00746221
O       1.54580999     0.95664499     1.00274199    -0.35912282    -1.20621550    -0.00415002
O       4.51939697     8.34458500     8.47310998    -0.73086900    -0.24105567    -0.58828508
O       4.48216602     8.49521800     3.71097998     0.02705804    -0.18940938     0.51629468
O       4.41396000     3.83595101     8.36744402     0.24525711    -0.75714491     0.07283887
O       4.46181498     3.69118801     3.75815502     0.07317491     0.08875863    -0.88206972
O       1.42497898     8.21251701     8.36964403     0.07310138     1.74395190     1.39628000
O       1.46164302     8.34199700     3.98541601     0.03415378    -0.00513398    -2.20453743
O       1.42994398     3.88388500     8.12029602     0.21731281     0.34466165     2.03502736
O       1.61741799     3.75813698     3.62826899    -1.48158281    -0.86373106     0.13410056
O       2.96121001     6.19914400     7.88773500     0.60479285    -0.68027610     0.17429926
O       2.88220898     5.89942002     3.10476902     0.26463269     1.72733022    -0.81814410
O       2.92220800     1.56473501     8.03830101     0.08967163    -1.25155615     0.07170295
O       3.13699401     1.44581300     3.19161003    -0.96010118     0.27748410     0.07731824
O       0.02065299     6.01533000     7.79238499    -1.10574575     0.04369951    -0.13910985
O       0.02089499     5.94632899     3.04011901     0.24163031     0.22508937     0.56490911
O       0.00895098     1.44059399     8.02819600     0.11265190     0.11545877    -0.42411931
O       2.89205300     7.93101302     6.06726001     0.52194031    -0.71804279     0.88585181
O       3.09809599     7.84874798     1.52359502    -1.69087068     1.17859258    -1.46337347
O       2.94552800     3.23526699     6.08947201     0.66969549    -0.04073272    -0.03402651
O       5.78115901     7.87158002     5.98182202     0.85091668    -0.41912314     1.15586145
O       5.84076400     7.89433400     1.49331100     1.02459527     0.12547605    -0.14004778
O       5.88038800     3.25185299     6.01264400    -0.27320372    -0.18262398     0.14212241
O       0.05843001     3.15649901     1.48732098     0.13036243    -0.05678669    -0.17272935
