# total energy = -19903.48973251 eV

CRYSTAL
PRIMVEC
        6.70260439     0.00000000     0.00000000
        1.75599694     6.91409384     0.00000000
        0.00000000     0.00000000    12.09248952
PRIMCOORD
24 1
Ti      3.46997395     4.09728581     4.48622759    -0.33033931    -1.74769491     0.59992087
Ti      4.98862757     2.81680848     7.60626261     0.33033931     1.74769491    -0.59992087
Ti      6.49595886     2.81681088     1.55996923     0.26909433    -0.37362514    -0.27711514
Ti      1.96264269     4.09728369    10.53252111    -0.26909433     0.37362514     0.27711514
Ti      2.59197562     0.64023894     1.56001771    -0.33033931    -1.74769491    -0.59992087
Ti      5.86662593     6.27385562    10.53247262     0.33033931     1.74769491     0.59992087
Ti      1.08464423     0.64023629     7.60621413    -0.26909433     0.37362514    -0.27711514
Ti      7.37395731     6.27385821     4.48627608     0.26909433    -0.37362514     0.27711514
O       2.73973299     2.43457013     6.17070513     1.75455204     1.92536412    -0.56331477
O       5.71886846     4.47952417     5.92178507    -1.75455204    -1.92536412     0.56331477
O       1.84824828     2.43459803     0.12449899    -0.78567080     0.16709683     0.90228451
O       6.61035332     4.47949639    11.96799087     0.78567080    -0.16709683    -0.90228451
O       4.84087011     1.02247710     0.12445976    -1.75455204    -1.92536412    -0.56331477
O       3.61773141     5.89161719    11.96803010     1.75455204     1.92536412     0.56331477
O       5.73235496     1.02244925     6.17074436     0.78567080    -0.16709683     0.90228451
O       2.72624649     5.89164512     5.92174584    -0.78567080     0.16709683    -0.90228451
O       1.31161800     4.20554397     3.26648329     0.52654824     1.58382327     1.70992513
O       7.14698345     2.70855033     8.82600691    -0.52654824    -1.58382327    -1.70992513
O       4.28272041     2.70848586     2.77980030     0.55454602     1.65469962     0.90897864
O       4.17588112     4.20560851     9.31268970    -0.55454602    -1.65469962    -0.90897864
O       0.43361965     0.74849690     2.77976167     0.52654824     1.58382327    -1.70992513
O       8.02498188     6.16559746     9.31272832    -0.52654824    -1.58382327     1.70992513
O       3.29788276     0.74856137     8.82604546    -0.55454602    -1.65469962     0.90897864
O       5.16071876     6.16553293     3.26644467     0.55454602     1.65469962    -0.90897864
