# total energy = -19074.43605412 eV

CRYSTAL
PRIMVEC
        7.60600008     0.00000000     0.00000000
        0.00000000     7.60600008     0.00000000
       -1.89786986    -1.89786986     4.85670466
PRIMCOORD
22 1
Ti      3.91824098     6.44552099     1.34170801     1.07627935    -0.64133647    -1.17602919
Ti      3.73793003     2.63590300     1.16375100     0.21740974     1.01107050    -0.44202242
Ti      0.31373602     6.78968999     1.01752599    -1.97812806     0.41413468     1.67822059
Ti     -0.02503400     3.02040102     1.03655801     0.29176452    -0.70250021     0.63232963
Ti      5.67245923     3.08680822     3.49119383    -0.17427715    -0.54406517     0.43337168
Ti      6.05509322    -0.68688779     3.66428480    -0.12969138    -1.75143895    -0.70765604
Ti      1.81678922     2.77269125     3.58882883    -0.04693268    -0.53319171     0.84913850
Ti      1.17333424    -1.22855478     3.91270383     1.98339317     0.91297619    -0.93774183
O       4.10774602     4.62295098     0.83091502    -1.00322966    -0.04002284     0.34905052
O       3.95518099     0.73698701     0.69512798    -0.44920171     1.36792226     2.73029788
O       0.13715899     4.88792400     0.52610501     0.03845755     0.19570576     1.40728227
O       0.13548398     1.10856802     0.87395099     0.13949808    -0.33959529    -0.42536141
O       5.61743321     5.03358020     4.08972182    -0.16744316    -0.48953360    -2.76583286
O       5.51571020     1.05989721     3.98815080     0.19374864     0.32171557    -0.36290800
O       2.11864420     4.61393825     4.30131980    -1.55021097    -0.36499883    -1.59552180
O       1.52971321     0.80908921     4.10451783    -0.03539845    -0.13715092    -0.12172481
O       3.67159723     2.77744125     3.06709483     1.33765548     0.01976408     0.61824461
O      -0.02816578     2.87293621     3.28054779    -0.04255100     1.11100263    -0.03960246
O       5.94396198     6.64601498     1.75646698    -0.57468342     0.17686754     0.78702962
O       5.82094700     2.82361599     1.63377502    -1.61314877     0.01503607    -0.74356357
O       1.84085499     6.49023102     2.14475000     1.41634772    -0.23787701    -0.49812108
O       1.80106599     2.87082997     1.57661202     1.07034164     0.23551648     0.33111964
