# total energy = -19072.29139134 eV

CRYSTAL
PRIMVEC
        5.17600016     0.00000000     0.00000000
        0.00000000     5.50899976     0.00000000
        0.00000000     0.00000000     9.26300011
PRIMCOORD
22 1
Ti      2.01388198     3.39951498     3.32166200     0.50303806    -0.72427540     1.25230974
Ti      3.41741297     2.09206400     5.92951798     0.95367240     0.40973655    -1.67961644
Ti      4.44235898     2.34800698     1.36031002     0.27548661    -1.20611934    -2.85948944
Ti      0.64507098     3.07508001     7.89456203    -0.64174836    -0.66814923     2.00784077
Ti      1.90742300     0.44699502     1.32205501    -0.86729101     0.75044436    -3.07649757
Ti      3.28377101     5.22663602     8.02519298    -0.79650054    -0.83406463     1.84550280
Ti      0.70887299     0.27583100     6.19993702    -1.54251720    -1.49188136    -2.26023243
Ti      4.70096700     5.01152499     3.18281499    -0.18498271    -0.01864693     1.97182603
O       3.63198699     3.14640400     4.29094301    -0.85864722     1.16846295     1.24651601
O       0.78604798     1.85308999     0.12188698     0.15860807     0.90359269    -0.23160686
O       4.28831898     3.72780702     8.74511000    -0.37864085    -0.19184139     0.23895662
O       3.48632498     0.74901399     0.36290198     0.76048555     0.46232334    -0.80662067
O       1.72885499     4.78835697     8.99039699    -0.88241682    -0.65317332     0.92184238
O       4.43858902     0.90121198     4.92949400     0.04875945    -1.06443350    -0.50279252
O       1.07774599     4.83634398     4.17362002    -0.75173839    -0.07134120     1.92809874
O       0.41158099     3.55933800     2.18388101    -0.73814625     0.95804944     0.15653062
O       4.45091398     1.00374701     7.31274000     1.27433793     1.05359733    -0.33779320
O       2.73959899     2.00072599     2.17573502    -0.22467362     0.60471855     0.26768151
O       1.52776203     4.12274502     6.63226002     1.45737689    -0.48332052    -0.42050665
O       0.20041599     0.94002798     2.23159502    -0.23037581    -0.69509183     1.05256837
O       1.98171599     1.25437302     7.04448502     0.57162741     1.33527001     0.00738601
O       2.78370703     4.80824600     2.50636099     2.09428669     0.45614344    -0.72190356
