# total energy = -19518.76595360 eV

CRYSTAL
PRIMVEC
        7.60600008     0.00000000     0.00000000
        0.00000000     7.60600008     0.00000000
       -1.89786986    -1.89786986     4.85670466
PRIMCOORD
23 1
Ti      3.76401799     6.71869800     1.24894599     1.13449146    -0.56437972    -0.54580067
Ti      3.76403799     2.89785098     1.15335198     0.57366732     0.04056842     1.06505211
Ti      0.04795298     6.61148399     1.24145300    -1.21690538     0.71650450     1.02631149
Ti      0.04742502     2.90237899     1.00207999    -0.36873747    -0.65918996     1.86776779
Ti      5.64131524     2.87768922     3.58425780    -0.98928913     0.05225409    -0.22949264
Ti      5.64424223    -1.01524777     3.66855383     1.56634414     0.39177585    -0.79601820
Ti      1.88870425     2.84232521     3.71745081     1.32593845     0.67429699    -0.57440934
Ti      1.93970323    -0.95330075     3.66502681    -1.94518502    -0.81127899    -0.00555770
O       3.95089598     4.82328802     0.81879400    -0.85055801    -1.49489881     0.10078728
O       3.93616898     0.94919502     0.74723098    -0.39511237    -0.44565925     0.57464691
O      -0.16487200     4.76612100     0.79827002     0.99074257    -0.03436075    -0.20744671
O      -0.00185498     0.90993399     0.88393599     0.10836921     0.17134969    -1.19360757
O       5.77196323     4.79843023     3.95013381     0.14712089    -0.98195403     0.66380380
O       5.85310822     1.03524025     4.03301080     0.31433290    -1.02977014    -0.70893825
O       1.72370424     4.72211123     3.96858579     0.08930679     0.28643411     0.76395474
O       1.76655024     0.93152024     4.07209980    -0.21166975     1.00495230     0.43508892
O       3.82718524     2.73513723     3.41380282    -0.57566353     0.47152995    -1.24877884
O       3.75184125    -0.83223479     3.29725783     1.17058925     0.10192885    -0.61968880
O       0.01831022    -0.86340475     3.22867582    -0.19467372    -0.21054720    -0.35481108
O       5.72395003     6.47653501     1.65287101    -0.82946158     1.07656140     0.55494068
O       5.75570198     2.71424701     1.67522298     0.40033145     0.64636503    -0.03957752
O       1.92079499     6.47173902     1.64795400     0.27287899     0.38377123    -0.25928531
O       1.90938402     2.82060301     1.70237099    -0.51685775     0.21374643    -0.26894109
