# total energy = -4947.13825298 eV

CRYSTAL
PRIMVEC
        5.64387183     0.00000000     0.00000000
       -0.00000737     2.41880237     0.00000000
       -2.82196829    -1.20948869     6.12486020
PRIMCOORD
6 1
Ti     -0.00024116     1.81417689     1.53121499    -0.02363745    -0.01817616    43.41873218
Ti      2.82213705    -0.60486315     4.59364510     0.02363745     0.01817616   -43.41873218
O       0.00005997     0.60468577     0.99768967     0.02172043     0.01815611   -37.67478609
O       2.82183576     0.60462791     5.12717047    -0.02172043    -0.01815611    37.67478609
O      -0.00002360    -0.60472955     4.06011977    -0.00147633    -0.00007173    -1.39353277
O       2.82191926     1.81404318     2.06474037     0.00147633     0.00007173     1.39353277
