# total energy = -19073.49083771 eV

CRYSTAL
PRIMVEC
        5.17600016     0.00000000     0.00000000
        0.00000000     5.50899976     0.00000000
        0.00000000     0.00000000     9.26300011
PRIMCOORD
22 1
Ti      1.65150399     3.44416400     3.44724301     1.64167466     1.64071230     0.74505661
Ti      3.82833800     2.25969301     6.14274101    -0.28178067     0.23150864    -1.47129042
Ti      4.29746501     2.42714999     1.28728002     0.72715581    -0.53926338     0.40274161
Ti      1.30372902     2.69603500     7.86218400     0.78022468     1.76225610    -3.23361877
Ti      1.70763202     0.82328597     1.45877398    -0.65755499     0.19010435     0.73948014
Ti      3.15961697     5.35533097     8.04230001    -0.33580162     0.08762554    -2.23855751
Ti      0.65140698     5.32218199     6.30667202    -0.93585593    -0.23160454    -1.34349909
Ti      4.34948800     5.20977500     3.40732998    -0.29181595    -0.52341149     0.61945740
O       3.20552601     3.24834598     4.69183600    -0.81238868    -0.14007632    -0.74197745
O       0.79899901     2.06787499     0.14073501    -0.95090332    -0.44372166     1.40669580
O       0.35860400     3.32110901     6.28527400    -0.90850015    -1.26535475     0.39851702
O       3.23413000     0.66242302     0.34924598     1.10516519     0.51888403    -0.25269660
O       1.27654502     4.81297398     7.96389599     0.61453836    -1.47321180     2.28052616
O       4.08494198     0.58043802     4.92879998    -0.28348583     1.08528850     1.13890991
O       0.82431999     4.81364302     4.43756601     0.84042606    -0.04042496    -0.38700953
O       0.05898099     3.76636902     2.29876698    -0.78479842    -0.99957252    -0.55584906
O       4.72290098     0.90285000     7.35735298    -1.47355453     0.81508474     0.03612967
O       2.51007598     2.39388897     2.06480698     0.82725352    -0.01637485    -0.04143823
O       3.19219699     3.45005702     7.52365698     0.29152798    -0.82506885     1.18555436
O       5.13262001     1.04310901     2.36194000    -0.29988253     0.29287678     0.02529735
O       2.04398999     1.18219103     6.67387600     1.31450372     0.49504887     0.43501590
O       2.60008601     4.98851202     2.47407600    -0.12614737    -0.62130448     0.85255447
