# total energy = -4988.13753369 eV

CRYSTAL
PRIMVEC
        3.53692784     0.00000000     0.00000000
       -0.00000787     3.53692784     0.00000000
       -1.76849166    -1.76849559     4.51390654
PRIMCOORD
6 1
Ti     -0.00015576     2.65282984     1.12847651     0.00264695    -0.00291949    -0.00020749
Ti      1.76858396    -0.88439770     3.38542974    -0.00264695     0.00291949     0.00020749
O       0.00003533     0.88422595     0.73527844     0.00052888     0.00217824     1.54871536
O       1.76839278     0.88420610     3.77862786    -0.00052888    -0.00217824    -1.54871536
O      -0.00001998    -0.88421060     2.99223166     0.00221886     0.00050265     1.54864543
O       1.76844804     2.65264259     1.52167463    -0.00221886    -0.00050265    -1.54864543
