# total energy = -19519.92857111 eV

CRYSTAL
PRIMVEC
        5.17575250     0.00001323     0.00000000
        0.00001429     5.50856584     0.00000000
        0.00000000     0.00000000     9.26345890
PRIMCOORD
23 1
Ti      1.83078564     3.35858998     3.41009815     0.06789180     0.02136459     0.00195327
Ti      3.33467914     2.17933520     5.76938687     0.00298377     0.02449439     0.00959048
Ti      4.53319585     1.96392932     1.40522719     0.01334300    -0.04789298    -0.02092313
Ti      0.88293766     3.29898810     7.94138306    -0.05238496    -0.04367972     0.00880577
Ti      1.90711367     0.61537381     1.14065911     0.03749004    -0.08364239     0.09567156
Ti      3.20518956     5.13942218     7.95084101     0.03814670    -0.00547002     0.02980527
Ti      0.67822370     0.63346505     5.70315623     0.02878197     0.01246291    -0.00171338
Ti      4.40097227     4.86115804     3.46597938     0.05933697     0.02068762     0.08371078
O       1.60004674     1.90900247     4.68591170    -0.02273036    -0.00217515    -0.01946917
O       3.50944630     3.57044290     4.53472855     0.06396419     0.01308949    -0.03011843
O       0.82424387     2.04475917     0.10190852    -0.03059665    -0.00457888     0.03138778
O       3.58266401     0.86733868     0.09366802    -0.11651678    -0.00621307    -0.06618279
O       1.73913071     4.66172690     9.17215414    -0.02333406     0.04105231     0.00023757
O       4.16680767     0.78446607     4.74496482    -0.03108542    -0.05312467    -0.06784475
O       0.93026818     4.63736040     4.57221549     0.00081530     0.02657827     0.00034633
O       0.15638776     3.38718238     2.44256038    -0.03465283    -0.02821427    -0.03809296
O       4.98492661     2.12993829     6.77237034    -0.01718963    -0.01032967     0.07505670
O       2.76302604     2.15368879     2.11770173     0.05954857     0.10084307     0.04403581
O       2.54485756     3.38300524     7.16267922     0.03291759    -0.02236578    -0.04721473
O       0.23433149     0.57254659     2.21096128     0.00982907    -0.00617039    -0.00842602
O       4.95996260     4.77650378     7.33692566    -0.05118734     0.03740494     0.02529786
O       2.33103191     0.70588882     6.79628275    -0.02927845     0.01578786    -0.06630106
O       2.78295896     4.89994302     2.46165940    -0.00609275     0.00009179    -0.03961274
