# total energy = -4986.13424799 eV

CRYSTAL
PRIMVEC
        3.64484030     0.00000000     0.00000000
        1.56113831     3.29358589     0.00000000
       -2.60302381    -1.64681477     4.78017112
PRIMCOORD
6 1
Ti      1.17076166     2.47031618     1.19504273     0.00085618    -0.00085618     0.00000000
Ti      1.43219338    -0.82354487     3.58512810    -0.00085618     0.00085618     0.00000000
O       0.39032244     0.82339215     0.77865076     0.00035070     0.00041986    -2.25206249
O       2.21263248     0.82337904     4.00152012    -0.00035070    -0.00041986     2.25206249
O      -0.39028959    -0.82337141     3.16873617     0.00041986     0.00035070    -2.25206249
O       2.99324445     2.47014256     1.61143471    -0.00041986    -0.00035070     2.25206249
