# total energy = -19961.45453132 eV

CRYSTAL
PRIMVEC
        7.60600008     0.00000000     0.00000000
        0.00000000     7.60600008     0.00000000
       -1.89786986    -1.89786986     4.85670466
PRIMCOORD
24 1
Ti      3.82182700     6.64609901     1.19337799     0.39127834    -0.50951210    -1.03068725
Ti      3.78220999     2.79369900     1.21131101     1.06933634     0.59114800    -0.79070939
Ti      0.00927002     6.70835100     1.23462402    -0.51850480    -0.53257491    -0.04508868
Ti     -0.05623000     2.81275901     1.21345799    -0.58602430     0.61757869     1.53018670
Ti      5.65325221     2.86679124     3.68872379     1.83634555     0.63372626     0.48991875
Ti      5.66199120    -0.87382679     3.63052181     1.40058274    -1.22670257    -0.07973431
Ti      1.96335222     2.81785224     3.59417082    -1.13611460     0.05179695     1.42458914
Ti      1.97862925    -0.96825879     3.55028483    -1.40841947    -0.08775076     1.07779810
O       3.81888801     4.74039198     0.79644499    -0.28631713    -1.19829007     0.32195700
O       3.89842901     0.86738798     0.66872600    -0.32603914     1.30894525     0.90694258
O      -0.14830801     4.75517603     0.79335301     0.56483018     0.11978003     0.35786633
O      -0.13005801     0.94854202     0.80703399     0.26811191    -0.13283147     0.01581743
O       5.78063020     4.78201521     4.13324480    -0.17706680    -0.10867646    -0.49414359
O       5.63899824     0.90302621     4.18669181     0.01349213     0.76914220    -1.71935131
O       1.85019322     4.64583425     4.07929179     0.19548645     0.92546841    -0.98263177
O       2.05270522     0.89915724     4.03969579    -0.35752823     0.40037105     0.46032637
O       3.86999420     2.86116423     3.21597181    -1.67131923    -0.13807498    -0.26724390
O       3.81439725    -0.96958676     3.11907782     0.22030891    -0.35951877     1.05176876
O      -0.08560379     2.75113124     3.15767384     0.73218155    -0.10871040     1.28986483
O      -0.01787979    -0.86676678     3.27675883     0.21580922    -0.20447528    -0.40383535
O       5.70932198     6.68267601     1.61220099    -0.06659057     0.01255342     0.39566927
O       5.68997399     2.80717699     1.69387902    -1.19611003     0.03508863    -0.87315056
O       1.91748202     6.84777598     1.66510702    -0.39028229    -0.56069044    -0.77351924
O       1.85018602     2.88665602     1.75366398     1.21255276    -0.29779145    -1.86260964
