# total energy = -19958.04255178 eV

CRYSTAL
PRIMVEC
        7.60600008     0.00000000     0.00000000
        0.00000000     7.60600008     0.00000000
       -1.89786986    -1.89786986     4.85670466
PRIMCOORD
24 1
Ti      3.71832999     6.59915998     1.35144202    -0.28266642     2.65458144     0.29532062
Ti      3.65398399     3.10711301     1.13725001     1.00150959    -4.13136348     1.72422819
Ti     -0.03084998     6.57356701     1.16677498     0.31327952     2.14760496     1.28616269
Ti      0.10670600     3.05059000     1.11871198    -0.64219444    -1.20798982    -1.33938172
Ti      5.62620025     2.80290124     3.54746781    -0.90536881     0.99717985    -2.27773599
Ti      5.98781923    -1.04916280     3.76718183    -1.25149881    -0.79645684    -0.31324378
Ti      1.73435420     2.87863021     3.55763981     1.29416526     0.05682860     0.11225569
Ti      1.96009222    -1.04763977     3.81704483     1.82840212     0.45821832    -0.85909279
O       3.53481000     4.77444797     0.64831902    -0.31382511     1.45165901     0.86475153
O       3.66851102     0.88863598     0.76770898     1.17739728     0.18211645     2.15584715
O       0.45824300     4.91739298     0.47543999     0.43134720    -3.53964238     1.28226182
O       0.13368398     0.76797102     0.89048302    -0.47477700     1.87483652    -1.00708554
O       5.44805320     4.79712322     4.09155579     0.41841094    -1.24808619    -1.08047976
O       5.67950522     0.88961025     4.05252384     0.10533788     1.37054273    -0.55007590
O       1.99875624     4.77306021     4.16888182     0.17027908    -2.86181860    -1.05354951
O       1.63262024     0.88578123     4.23003179     0.32932553     1.89358604    -2.43380304
O       3.61834422     3.07678020     3.12581684     1.37434051    -1.06738462     0.36494920
O       3.95917925    -0.96457080     3.17008781    -0.51110670     0.17633918     1.19656846
O      -0.03595876     3.08529123     2.94622482     0.17854878     0.36853821     2.95897008
O       0.20853923     6.27927922     3.35710381    -3.37512385     0.44181467    -0.72303407
O       5.82675398     6.43560299     1.67830697     0.22170888    -0.06717087     0.24295725
O       5.80412498     2.90446501     1.56197000    -2.05138421     0.22570695    -0.10393868
O       1.94185301     6.84596899     1.83346698     0.14976553    -1.02390673    -1.15508575
O       1.80485701     2.45674798     1.56096599     0.81412726     1.64426633     0.41223438
