# total energy = -19927.67860755 eV

CRYSTAL
PRIMVEC
        6.49427564     0.00000000     0.00000000
        0.00003232     6.25359937     0.00000000
        0.00000000     0.00000000    11.09757722
PRIMCOORD
24 1
Ti      2.35388175     3.70587714     4.11712209     0.19973185    -0.84898732     0.70475429
Ti      4.14042621     2.54772210     6.98045550    -0.19973185     0.84898732    -0.70475429
Ti      5.60090639     2.54772425     1.43162238     0.20031189     0.84819979    -0.70407295
Ti      0.89340163     3.70587530     9.66595541    -0.20031189    -0.84819979     0.70407295
Ti      2.35386566     0.57907758     1.43166689     0.19973185    -0.84898732    -0.70475429
Ti      4.14044237     5.67452185     9.66591089    -0.19973185     0.84898732     0.70475429
Ti      0.89338547     0.57907530     6.98041105    -0.20031189    -0.84819979    -0.70407295
Ti      5.60092249     5.67452419     4.11716661     0.20031189     0.84819979     0.70407295
O       2.05549065     2.20199857     5.66300885     1.16129934     1.32090088    -0.39796912
O       4.43881738     4.05160067     5.43456874    -1.16129934    -1.32090088     0.39796912
O       1.19170799     2.20202386     0.11425578    -1.16009220     1.32145444    -0.39987868
O       5.30260010     4.05157544    10.98332156     1.16009220    -1.32145444     0.39987868
O       4.43880122     0.92480092     0.11421980    -1.16129934    -1.32090088    -0.39796912
O       2.05550681     5.32879831    10.98335754     1.16129934     1.32090088     0.39796912
O       5.30258394     0.92477570     5.66304490     1.16009220    -1.32145444    -0.39987868
O       1.19172397     5.32882360     5.43453276    -1.16009220     1.32145444     0.39987868
O       0.23597182     3.80379365     2.99773254    -0.15036768    -0.12685956     0.13755947
O       6.25833621     2.44980565     8.09984506     0.15036768     0.12685956    -0.13755947
O       3.48311540     2.44974744     2.55109154    -0.15085516     0.12747637    -0.13802381
O       3.01119257     3.80385186     8.54648593     0.15085516    -0.12747637     0.13802381
O       0.23595566     0.67699391     2.55105607    -0.15036768    -0.12685956    -0.13755947
O       6.25835230     5.57660540     8.54652134     0.15036768     0.12685956     0.13755947
O       3.01117647     0.67705211     8.09988047     0.15085516    -0.12747637    -0.13802381
O       3.48313156     5.57654713     2.99769713    -0.15085516     0.12747637     0.13802381
