# total energy = -4988.90278413 eV

CRYSTAL
PRIMVEC
        2.85613934     0.00000000     0.00000000
        0.66751700     4.42507834     0.00000000
       -0.00000419    -0.00005809     4.48785269
PRIMCOORD
6 1
Ti      1.76182581     2.21251004     2.24392629     0.00000000     0.00000000     0.00000000
Ti      0.00000000     0.00000000     0.00000000     0.00000000     0.00000000     0.00000000
O       1.55815795     0.86237122     0.87461636    -1.69558480     0.85691558     0.88779557
O       1.96549367     3.56264887     3.61323618     1.69558480    -0.85691558    -0.88779557
O       0.20366603     1.35011529     3.11854361     1.69556526    -0.85889404     0.88945290
O       0.46384636     3.07490489     1.36930893    -1.69556526     0.85889404    -0.88945290
