# total energy = -19516.80145815 eV

CRYSTAL
PRIMVEC
        5.17600016     0.00000000     0.00000000
        0.00000000     5.50899976     0.00000000
        0.00000000     0.00000000     9.26300011
PRIMCOORD
23 1
Ti      1.87496803     3.26363200     3.27186499     0.26638387    -0.42744452     4.03285548
Ti      3.32612498     2.18391298     5.90005799     0.55658851     0.69630719    -3.43559674
Ti      4.48963102     2.16946601     1.40139900    -0.60061609    -0.81565141    -2.31266213
Ti      0.77068798     3.36313601     7.91385699     0.77003514    -0.77562061     1.59544492
Ti      1.86165102     0.56107801     1.35611000    -0.63199076    -0.46586350    -3.08174905
Ti      3.31141602     5.08289301     7.88894798    -0.55655508    -0.11557602     2.77617692
Ti      0.75055199     0.60932400     5.84412099    -0.69907884    -0.43495163    -2.98253631
Ti      4.43366597     4.87387202     3.37933401     0.34358487     1.10335231     3.65096810
O       1.70594601     1.88642101     4.81349602    -0.52183823    -0.05868108    -0.61887787
O       3.38869199     3.53594302     4.49095999     0.50895932     0.54415259     0.04522855
O       0.76757800     2.16181702     0.16071902     0.05577625     0.07640293    -0.20027821
O       3.43129700     0.84265497     0.08553700     1.04556546     0.74531192     0.44350338
O       1.78935302     4.78359703     9.02142699    -1.26876455    -1.07450452     0.69703507
O       4.31662498     0.81642599     4.82836902    -0.51668934    -0.34925313    -0.91397172
O       0.83906101     4.70154201     4.49225600     0.55116373    -0.40028414     0.07627566
O       0.06640100     3.31052801     2.67295203     0.06785298    -0.02941035    -1.14940927
O       5.04614901     2.13135499     6.69052699     0.60572256     0.75944142     1.72193039
O       2.75203503     1.87766000     2.30291102    -0.01921797     1.08446292    -0.21723182
O       2.44697699     3.26964002     7.12135601     0.43615207     1.41580625     0.94858161
O       5.17080401     0.70562098     2.17757698     1.43123107    -1.65288082     0.15522193
O       5.06216498     4.83846302     7.12068300    -0.42516498    -0.01520371     0.53135389
O       2.58469399     0.63790301     6.70973400    -1.51437724    -0.38498196    -0.11867420
O       2.64239098     4.78176798     2.54471200     0.11527777     0.57507012    -1.64358885
