# total energy = -19957.39570574 eV

CRYSTAL
PRIMVEC
        7.60600008     0.00000000     0.00000000
        0.00000000     7.60600008     0.00000000
       -1.89786986    -1.89786986     4.85670466
PRIMCOORD
24 1
Ti      3.81803402     6.62214898     1.16427700     2.32433186    -0.91375858    -0.83877644
Ti      3.66120499     2.73649500     1.18974900     3.07317621     0.10837307     0.10070243
Ti     -0.02326702     6.86830800     1.26479200    -1.83445039    -3.36680787    -1.03718906
Ti      0.01725599     2.89562500     1.22527198    -2.56612723     4.00465921     0.70531916
Ti      5.64102721     3.00876225     3.65974483    -0.35041269     0.15146194     0.25833426
Ti      5.75829823    -0.79310779     3.74573782    -2.17770822    -0.62073267    -1.66080316
Ti      1.88410321     2.60645424     3.61030983    -0.86628442     1.22662621     2.37665614
Ti      1.91889820    -1.04057076     3.55040882     1.97950129    -0.93066847     0.96111137
O       3.98031601     4.48194599     0.73397001    -1.95135978     1.33121435    -0.30044997
O       4.02752497     0.82187699     0.72622201    -1.32518974     0.19664704    -0.32431367
O      -0.11175599     4.84266998     0.85938798     1.12319506    -1.16717945    -0.66143325
O      -0.04569297     1.08597099     0.93428699     0.45985046    -1.20312195    -1.02547691
O       5.24380824     4.74644121     4.22681683     1.98935736     1.45942786    -1.33882071
O       5.57729321     1.02523324     4.11282581     0.81617926    -0.35186691    -0.38829509
O       2.36081624     4.48408122     4.14514182    -2.37556650     2.61842272    -0.52553162
O       2.15860121     0.73121220     4.02976382    -1.83684974    -0.23568566    -0.42553187
O       3.57279423     2.67498523     3.38723479     4.43745137    -0.27041228    -3.09638763
O       3.98832622    -0.83769579     3.14838180    -1.02544785    -0.53683780    -0.15458481
O       0.02888122     3.06377721     3.32268882    -1.43572999    -0.50561251    -1.09879605
O       0.00278924    -0.89784980     3.18554079     0.59235693    -0.20067005     1.41274972
O       5.75822298     6.56089899     1.46740100     0.41623065     0.74723690     2.29504132
O       5.55729899     2.97283598     1.57026798     1.60828039    -1.08110506     2.69732373
O       1.97045499     6.58251598     1.55830899    -0.74301104     0.12864057     0.62861850
O       1.85477499     2.90173498     1.30988203    -0.33177270    -0.58825088     1.44053384
