# total energy = -19959.24784411 eV

CRYSTAL
PRIMVEC
        7.60600008     0.00000000     0.00000000
        0.00000000     7.60600008     0.00000000
       -1.89786986    -1.89786986     4.85670466
PRIMCOORD
24 1
Ti      3.72260098     6.77499003     1.25447198     0.61716526    -0.68359076    -0.22879330
Ti      3.72106599     2.95576700     1.22961901     0.66862051     0.25453391     0.87426564
Ti      0.03611000     6.64711900     1.16754800    -0.03229384    -0.09428470     0.68327066
Ti     -0.02473999     2.78403300     1.26844602    -0.68542885    -0.13916101    -0.97701391
Ti      5.79470420     2.72248122     3.66906279    -2.64687970    -0.65302111    -0.20464960
Ti      5.79721425    -1.05570676     3.55581780    -0.57229795     0.55235467     0.09639301
Ti      1.74718924     2.82165120     3.56884583     3.16648544     1.01438362     2.11883045
Ti      1.90356424    -0.88310475     3.70064584     0.98595672    -0.80664304     0.35360215
O       3.84977502     4.86248899     0.77895098    -0.04963311    -0.63071806     0.25924906
O       3.67581599     0.99353701     0.90440700     0.38303486     0.13453714    -0.99226107
O       0.24046799     4.75063198     0.93157998    -1.62141102    -0.52121731    -1.60867402
O       0.00876598     0.91591798     0.72770101     0.55010598     0.58111401    -0.13968037
O       5.87947723     4.62076421     3.77372680    -0.36833175     0.96422009     1.63902154
O       5.88650920     0.86412121     3.74206279    -0.76207372     0.68376868     2.53678322
O       1.74980522     4.82783820     4.01510079     0.27829708    -0.16797177     0.78338431
O       1.65456321     1.00299822     4.13051583     0.84776116    -0.38515551     0.40540270
O       3.64789221     2.53142225     3.12571682     1.07363086     0.97977733     0.62445074
O       3.91309320    -0.88333378     3.43192381    -1.40496699    -0.28407332    -1.28363376
O      -0.05420278     2.62096623     3.32812881     0.98440429     0.69253821    -1.96960253
O       0.18966120    -0.75642776     3.12616683    -2.66833505    -0.91542208    -0.13967420
O       5.74724700     6.76686599     1.70006299     0.26894418    -0.66472760    -1.45681279
O       5.71935502     2.76616898     1.63470298     0.42675752     0.65161343    -0.27600340
O       1.89682199     6.72442502     1.67213798     1.56274716    -0.06204074    -0.42586226
O       1.85312200     3.04178402     1.68277201    -1.00225932    -0.50081431    -0.67199226
