# total energy = -19073.95190910 eV

CRYSTAL
PRIMVEC
        7.60600008     0.00000000     0.00000000
        0.00000000     7.60600008     0.00000000
       -1.89786986    -1.89786986     4.85670466
PRIMCOORD
22 1
Ti      3.86171702     6.57851498     1.19052297    -0.61198809    -0.06732410     0.86639215
Ti      3.79050902     2.87381998     1.09857700     0.57063033    -0.22642608    -0.21317384
Ti      0.25476202     6.79041602     1.02066401     0.44472774    -2.49529022     1.18135421
Ti     -0.07702498     2.76210400     1.24860700    -1.14364639     1.22160356     0.21799723
Ti      5.58290820     2.79716924     3.59102280     1.37986478     0.44581326     1.78217702
Ti      6.07430320    -0.63332177     3.58449783     0.27097201    -3.23800790     0.39264411
Ti      1.84978422     2.78331321     3.48631884    -0.72935513    -1.28260480     2.78623765
Ti      1.56378820    -1.16097578     3.85640382    -0.67643487     1.89399125    -0.07969883
O       3.89265002     4.67414502     0.60221302    -0.45125731    -0.75808542     1.76560419
O       4.13351600     0.94163700     0.78572000    -0.95514538    -0.37655748     0.72521257
O      -0.08589102     4.91801699     0.66730902     0.34031134    -0.44444080     0.18436025
O      -0.16985299     0.93191903     0.98473002     0.08625514     1.95359561     0.40355793
O       5.98921325     5.05778022     4.10078782    -0.09108573     0.02000628    -2.27160648
O       5.22694823     0.88810125     4.16059379     0.86790653     1.01211308    -0.59137117
O       2.06171621     4.61559621     4.24965781    -0.51627488     1.10895860    -3.01627588
O       1.53776522     0.76115924     3.95151279     0.89255185     0.86421648     0.94200575
O       3.83180623     2.89055225     3.13551083    -1.70474410    -0.00539700    -0.43819585
O      -0.11404876     2.62032223     3.44041779     0.39254229     0.81356291    -1.65602091
O       5.54764700     6.55997901     1.84616602     1.32648506     0.36676183     0.68825937
O       5.71031699     3.07228500     1.57851002    -0.22422856    -0.47396890     0.70548243
O       2.05727499     6.66846802     2.09262000     0.45043944    -0.54977431    -2.05377406
O       1.83561798     2.88727903     1.69199102     0.08147366     0.21725418    -2.32116811
