# total energy = -19905.87514989 eV

CRYSTAL
PRIMVEC
        4.42526839     0.00000000     0.00000000
        0.00002425     4.70982379     0.00000000
        0.00000000     0.00000000     7.92025736
PRIMCOORD
24 1
Ti      1.60396132     2.79103722     2.93835905    -0.20955116     1.77342343    -2.65905310
Ti      2.82133132     1.91878661     4.98189854     0.20955116    -1.77342343     2.65905310
Ti      3.81651805     1.91878823     1.02173810    -0.20324038    -1.77309922     2.65680210
Ti      0.60877460     2.79103578     6.89851958     0.20324038     1.77309922    -2.65680210
Ti      1.60394929     0.43612542     1.02176986    -0.20890118     1.77410272     2.65576260
Ti      2.82134336     4.27369855     6.89848782     0.20890118    -1.77410272    -2.65576260
Ti      0.60876256     0.43612366     4.98186678     0.20353554     1.77371654     2.65984012
Ti      3.81653008     4.27370031     2.93839081    -0.20353554    -1.77371654    -2.65984012
O       1.40063393     1.65840907     4.04164679    -4.57717828    -3.85954481    -0.75358059
O       3.02465872     3.05141481     3.87861080     4.57717828     3.85954481     0.75358059
O       0.81204322     1.65842804     0.08154349     4.57515996    -3.86016984    -0.75129822
O       3.61324947     3.05139584     7.83871387    -4.57515996     3.86016984     0.75129822
O       3.02464668     0.69650287     0.08151779     4.57619251     3.85909872    -0.75323040
O       1.40064596     4.01332096     7.83873957    -4.57619251    -3.85909872     0.75323040
O       3.61323743     0.69648390     4.04167249    -4.57603311     3.86042027    -0.75175999
O       0.81205517     4.01333998     3.87858510     4.57603311    -3.86042027     0.75175999
O       0.16079497     2.86478182     2.13945916    -1.65388046     0.94949615    -1.13814963
O       4.26449767     1.84504201     5.78079843     1.65388046    -0.94949615     1.13814963
O       2.37343271     1.84499812     1.82069482    -1.65431858    -0.95034153     1.13669336
O       2.05185993     2.86482572     6.09956264     1.65431858     0.95034153    -1.13669336
O       0.16078294     0.50986988     1.82066953    -1.65411469     0.94955272     1.13607912
O       4.26450971     4.19995395     6.09958793     1.65411469    -0.94955272    -1.13607912
O       2.05184790     0.50991378     5.78082368     1.65399231     0.95026414     1.13876567
O       2.37344475     4.19991006     2.13943386    -1.65399231    -0.95026414    -1.13876567
