# total energy = -4983.84467908 eV

CRYSTAL
PRIMVEC
        4.99733698     0.00000000     0.00000000
       -0.00000811     3.33155760     0.00000000
       -2.49869794    -1.66582964     5.53620957
PRIMCOORD
6 1
Ti     -0.00021478     2.49878923     1.38405210    -0.00395127    -0.00380832     6.93098861
Ti      2.49884576    -0.83306161     4.15215671     0.00395127     0.00380832    -6.93098861
O       0.00005259     0.83288035     0.90180316     0.00168870     0.00370856    -2.37310236
O       2.49857828     0.83284721     4.63440571    -0.00168870    -0.00370856     2.37310236
O      -0.00002141    -0.83288342     3.66990783    -0.00248163    -0.00007919    -2.34367864
O       2.49865223     2.49861092     1.86630110     0.00248163     0.00007919     2.34367864
