# total energy = -19961.11381049 eV

CRYSTAL
PRIMVEC
        7.60600008     0.00000000     0.00000000
        0.00000000     7.60600008     0.00000000
       -1.89786986    -1.89786986     4.85670466
PRIMCOORD
24 1
Ti      3.80663300     6.72455499     1.33043299    -0.96145101    -0.53953591    -1.61644467
Ti      3.78013800     2.89972898     1.20426301     0.08368121     0.33193905     0.27241902
Ti     -0.03948001     6.56598602     1.19312600     0.90624812    -1.02834472    -0.30034147
Ti      0.06829101     2.70861201     1.22419802    -0.19211161     1.82626477     0.10888395
Ti      5.70730423     2.80036822     3.55782582     0.48888259    -0.00269966     0.44032832
Ti      5.71816622    -1.01426075     3.63681579     0.42602681     0.26133705    -0.36166976
Ti      1.91700423     2.90369320     3.66784082    -0.54865793     1.58010546     0.19932253
Ti      1.87749024    -0.84796379     3.68958783    -0.66819756    -1.93270770    -0.52091855
O       3.79047399     4.79453898     0.72112302     0.27080617    -0.57818758     0.80793836
O       3.72803700     0.92909698     0.85018802     0.23023003     1.50788366     0.52933866
O       0.05502602     4.53124801     0.63569597    -0.51936123     1.52948813     0.59926292
O       0.09886100     0.84917301     0.73183198    -0.32093293     0.75885367     0.33817912
O       5.69451020     4.68573421     4.08107279    -0.15931384     0.37292940    -0.23962973
O       5.86921923     0.92409922     3.82603481    -0.67966263    -1.15389507     0.53009996
O       1.78112622     4.83675023     4.21763180     0.49856151    -0.31100230    -0.88566026
O       1.73945124     0.97735323     4.10283679     0.27377117     0.43505858    -0.63494676
O       3.79251720     3.06856123     3.10631983    -0.16702561    -0.63046173     1.17715868
O       3.70455423    -0.88542980     3.28528879     1.65805414     0.03005029     0.44311462
O       0.07372820     3.09778325     3.17441383    -1.00440157    -1.09974813    -0.42045831
O      -0.05109778    -0.97771175     3.11927081     0.15914209    -0.11894596     0.93844966
O       5.71189098     6.45042498     1.61497800    -0.60506487     0.34603668     0.10717622
O       5.69939398     2.77951499     1.61859498     0.44824526    -0.20555900    -0.80754704
O       1.88216600     6.64588999     1.71102002    -0.28286825    -0.28761630    -0.30337434
O       1.87592298     3.02246302     1.64119001     0.66540046    -1.09124318    -0.40068112
