# total energy = -4989.24467464 eV

CRYSTAL
PRIMVEC
        3.88415141     0.00000000     0.00000000
        1.13959619     3.71321326     0.00000000
       -2.51190885    -1.85663254     5.01503828
PRIMCOORD
6 1
Ti      0.85457828     2.78505229     1.25375928     0.00027691    -0.00027691     0.00000000
Ti      1.65726022    -0.92847176     3.76127826    -0.00027691     0.00027691     0.00000000
O       0.28493967     0.92829817     0.81690862    -0.00040392    -0.00050959    -1.04777172
O       2.22689865     0.92828229     4.19812892     0.00040392     0.00050959     1.04777172
O      -0.28490976    -0.92827606     3.32442760    -0.00050959    -0.00040392    -1.04777172
O       2.79674807     2.78485641     1.69060999     0.00050959     0.00040392     1.04777172
