# total energy = -19957.45649219 eV

CRYSTAL
PRIMVEC
        5.18998598     0.00000000     0.00000000
        0.00002583     4.99764635     0.00000000
        0.00000000     0.00000000     8.86877510
PRIMCOORD
24 1
Ti      1.88113563     2.96160056     3.29025239    -0.29839746     0.95066266    -1.39933293
Ti      3.30887618     2.03604570     5.57852302     0.29839746    -0.95066266     1.39933293
Ti      4.47603816     2.03604742     1.14409989    -0.29800562    -0.95163402     1.40952298
Ti      0.71397369     2.96159909     7.72467566     0.29800562     0.95163402    -1.40952298
Ti      1.88112276     0.46277748     1.14413547    -0.29838023     0.95004534     1.40874960
Ti      3.30888909     4.53486893     7.72464009     0.29838023    -0.95004534    -1.40874960
Ti      0.71396078     0.46277566     5.57848749     0.29728546     0.94922644     1.40040739
Ti      4.47605103     4.53487080     3.29028796    -0.29728546    -0.94922644    -1.40040739
O       1.64267244     1.75975618     4.52566816    -0.27961631    -1.04717214     0.61269077
O       3.54733942     3.23789007     4.34310724     0.27961631     1.04717214    -0.61269077
O       0.95236915     1.75977639     0.09130901     0.27826777    -1.04727601     0.61465303
O       4.23764276     3.23786991     8.77746619    -0.27826777     1.04727601    -0.61465303
O       3.54732650     0.73906685     0.09128026     0.27854442     1.04756423     0.61470523
O       1.64268536     4.25857941     8.77749494    -0.27854442    -1.04756423    -0.61470523
O       4.23762984     0.73904669     4.52569697    -0.27991148     1.04750124     0.61308903
O       0.95238191     4.25859962     4.34307848     0.27991148    -1.04750124    -0.61308903
O       0.18857999     3.03985183     2.39567747     0.48223603    -0.13039972     0.21088299
O       5.00143186     1.95779447     6.47309793    -0.48223603     0.13039972    -0.21088299
O       2.78357758     1.95774796     2.03873843     0.48013801     0.13003179    -0.21081974
O       2.40643423     3.03989835     6.83003687    -0.48013801    -0.13003179     0.21081974
O       0.18856708     0.54102860     2.03871008     0.48143256    -0.13042311    -0.21161061
O       5.00144473     4.45661770     6.83006517    -0.48143256     0.13042311     0.21161061
O       2.40642136     0.54107512     6.47312623    -0.48114125    -0.13024108    -0.21032454
O       2.78359049     4.45657113     2.39564917     0.48114125     0.13024108     0.21032454
