# total energy = -19067.74061800 eV

CRYSTAL
PRIMVEC
        5.17600016     0.00000000     0.00000000
        0.00000000     5.50899976     0.00000000
        0.00000000     0.00000000     9.26300011
PRIMCOORD
22 1
Ti      1.81784001     3.17710702     3.26472100    -0.64353502     1.95797420    -1.38109223
Ti      3.49781500     2.65385598     6.01631098     1.02908288    -0.05081093    -0.52386812
Ti      4.38021902     2.17328599     1.37825898     1.37908908    -0.20020314     1.49969392
Ti      1.18383100     2.08362902     7.95213900    -0.91901006     0.54065177     1.84050508
Ti      2.06147798     0.48744501     1.58551902    -3.50352428     1.82110173     1.23934546
Ti      3.28496801     5.32600498     7.88811300    -1.27019382     0.81183847     0.62392084
Ti      0.57286099     0.01927999     6.07106300    -0.33966137     0.72368893    -0.08453276
Ti      4.35376502     5.16622800     3.58701799     1.04939126     0.99318178    -0.62414041
O       3.34120399     3.86111799     4.23954000    -1.03181211    -1.93323684     3.87837377
O       1.48177599     2.17978301     0.77776599    -3.00908244     1.40241311    -2.04346958
O       4.41010399     4.32001399     6.92439798     3.68848231    -0.99858881    -1.95823260
O       3.19464899     0.77048001     0.27916000     2.61205280    -0.57098643    -0.50340136
O       1.45606698     5.47727299     7.78109002    -1.53302520     1.63431179     2.14240284
O       4.44446902     1.10111202     5.12422498    -0.11500909    -0.58085150    -0.30036667
O       0.96192798     5.04926702     4.29359498     0.53931737    -1.51512157     0.97845295
O       5.14121898     3.58345901     2.56002200     1.32654163    -1.36939242    -0.43463332
O       4.18666498     1.58818999     7.72253502     2.59804209     0.43468783    -1.85978836
O       2.95590400     1.78092598     2.77440499    -0.03741728    -1.59724212     0.12962067
O       2.33579801     3.55839098     7.04493398    -2.12711866     1.44024974     2.56228754
O       5.12935599     0.63288498     2.18054699     1.22022673     1.14682968    -1.55359737
O       1.91773100     1.63749799     6.33494998    -0.47221695    -2.47553720    -3.64692632
O       2.82991499     4.51107799     2.14708499    -0.44061963    -1.61495806     0.01944577
