# total energy = -19517.33527472 eV

CRYSTAL
PRIMVEC
        5.93400000     0.00000000     0.00000000
        0.00000000     9.29699974     0.00000000
        0.00000000     0.00000000     4.64899994
PRIMCOORD
23 1
Ti      4.58675298     6.99229201     2.31840798     1.27508484     0.18234168     0.16416808
Ti      4.38807698     2.29126600     2.35112600     1.59115066    -0.18820714    -0.09133590
Ti      1.54772100     7.17150201     2.24224699    -1.32733867    -0.17803610    -0.43404608
Ti      1.46991898     2.31401300     2.33184702    -1.65707789    -0.47963304     0.19653546
Ti      2.99851298     4.39889199     0.05343902    -0.72938727     2.19695987    -0.16678598
Ti      3.00026900     0.03745998     4.62867398    -0.02871049    -0.92005881     0.07066577
Ti      5.92445698     4.62225199     0.05246200     0.84231145     1.41709386     0.01688933
Ti      5.92114698     0.13125998     0.07566399    -0.08078769    -0.58445310    -0.65348416
O       4.44683201     5.54202000     0.89991597    -0.39644266    -0.20676562    -0.30101433
O       4.34430101     0.87550201     1.04143602    -0.15992473    -0.00668076    -1.62802390
O       1.50138497     5.67519100     0.81225300     0.36221303    -0.66315203     0.21576217
O       1.50471900     0.79387198     1.03794599    -0.02270208     0.81472067    -0.77048303
O       4.40022800     8.43804601     3.70402601    -0.30204406    -0.52769547     0.28589958
O       4.45479999     3.70215098     3.68750398    -0.42264606     0.45372429     0.13242780
O       1.13174101     8.30585001     3.79631801     2.69612611     0.05087341    -0.71763630
O       1.50929797     3.78211701     3.64636702     0.15172368    -0.34102559     0.13326598
O       2.95510801     1.33746798     3.13974600    -0.96476182     0.20578552     1.32589602
O       0.05135602     6.03434302     3.18881200    -0.40809284     0.03512745    -0.40490827
O       5.89494402     1.32325201     3.15320001     0.09980898     1.00237605     0.80095010
O       3.13213601     7.91564699     1.38241900    -1.66939271    -0.88761790     0.73213861
O       2.86354802     3.27930898     1.38818301     0.43668506    -1.21463843     0.89390939
O       5.92842501     7.95152700     1.42487801    -0.24469172    -0.34837458     0.18762144
O       5.80806201     3.15172303     1.31309302     0.95889714     0.18733553     0.01158848
