# total energy = -19901.66487724 eV

CRYSTAL
PRIMVEC
        6.73688516     0.00000000     0.00000000
        0.71525705     7.13431833     0.00000000
        0.00000000     0.00000000    12.07267815
PRIMCOORD
24 1
Ti      2.86565758     4.22779048     4.47887759    -0.12086041    -1.29048523     0.62648217
Ti      4.58648484     2.90652791     7.59380097     0.12086041     1.29048523    -0.62648217
Ti      6.10152509     2.90653034     1.55741346     0.21578994     0.43281170    -0.53272892
Ti      1.35061735     4.22778840    10.51526530    -0.21578994    -0.43281170     0.53272892
Ti      2.50802920     0.66063137     1.55746189    -0.12086041    -1.29048523    -0.62648217
Ti      4.94411323     6.47368729    10.51521687     0.12086041     1.29048523     0.62648217
Ti      0.99298887     0.66062875     7.59375260    -0.21578994    -0.43281170    -0.53272892
Ti      6.45915349     6.47368985     4.47892602     0.21578994     0.43281170     0.53272892
O       2.38412094     2.51211478     6.16059541     1.56939115     1.60321428    -0.27198785
O       5.06802149     4.62220368     5.91208315    -1.56939115    -1.60321428     0.27198785
O       1.48807237     2.51214364     0.12429499    -1.17255126     0.90552281     0.30485993
O       5.96407012     4.62217489    11.94838329     1.17255126    -0.90552281    -0.30485993
O       4.71039309     1.05504430     0.12425585    -1.56939115    -1.60321428    -0.27198785
O       2.74174933     6.07927416    11.94842243     1.56939115     1.60321428     0.27198785
O       5.60644172     1.05501551     6.16063462     1.17255126    -0.90552281     0.30485993
O       1.84570063     6.07930295     5.91204401    -1.17255126     0.90552281    -0.30485993
O       0.67982648     4.33949699     3.26113163     0.48677711     0.43083426     0.86028861
O       6.77231588     2.79482147     8.81154692    -0.48677711    -0.43083426    -0.86028861
O       3.89341320     2.79475503     2.77524603     0.50711326     0.90944143     0.18779447
O       3.55872922     4.33956336     9.29743239    -0.50711326    -0.90944143    -0.18779447
O       0.32219808     0.77233761     2.77520744     0.48677711     0.43083426    -0.86028861
O       7.12994427     6.36198078     9.29747091    -0.48677711    -0.43083426     0.86028861
O       3.20110083     0.77240405     8.81158545    -0.50711326    -0.90944143     0.18779447
O       4.25104160     6.36191440     3.26109311     0.50711326     0.90944143    -0.18779447
