# total energy = -19073.76373672 eV

CRYSTAL
PRIMVEC
        5.17600016     0.00000000     0.00000000
        0.00000000     5.50899976     0.00000000
        0.00000000     0.00000000     9.26300011
PRIMCOORD
22 1
Ti      2.10745200     3.47511901     3.29975899     0.08158988    -1.15647697    -0.13871364
Ti      3.54195299     2.08064001     5.84978203    -0.39811259     1.52993705    -2.32944604
Ti      4.53532002     2.31901002     1.27290502    -0.85311960     0.73865276    -1.41362158
Ti      0.46563100     2.98021499     7.96983500     1.07543834     2.70339771     2.27377212
Ti      1.91925000     0.41468901     1.36414799     0.45791004     1.26816625    -1.74793968
Ti      2.86503400     5.20535299     7.98573800     1.72089012    -0.21568735     1.77249141
Ti      0.69499103     0.17622603     6.09601503    -1.06674184    -0.18201386    -1.71523009
Ti      4.70823001     5.00156900     3.38907601    -0.63520438    -0.69503398     0.01036258
O       3.63069300     3.51530500     4.48153000     0.62921731    -0.76566966     0.84985970
O       1.01159201     2.03386900     0.17382102    -0.51897505    -0.46896116    -0.32715834
O       4.19956701     3.50215600     8.99489700    -0.32272602     0.64003857    -0.32051332
O       3.38904098     0.91089402     0.13423899     0.37468289    -0.71613760    -0.49389007
O       1.66202901     4.67512500     9.24370202    -0.76023718     0.14996762    -0.34490308
O       4.20578802     0.69917502     4.77752001     0.78052267     0.31578455     0.83968944
O       1.25258700     4.79174101     4.31736901    -1.56132868     1.21290885     1.31937596
O       0.44952702     3.70240202     2.28077300    -1.11759957    -0.90793991    -0.17676649
O       4.80616702     1.64362898     7.16114199     0.22853387    -2.26629124    -1.54844822
O       2.76765300     2.03715498     2.17852902     0.53650073    -0.24023086     0.92097464
O       1.56184803     4.18563001     6.77919302     0.33494776    -1.39738352     0.60140311
O       0.21658902     0.91819000     2.15849199    -0.03122580    -1.41428467     1.42294466
O       2.24291100     1.09617998     6.78551600    -0.62107951     0.41408249     0.52053108
O       2.98097700     4.64666902     2.26099701     1.66611712     1.45317468     0.02522536
