# total energy = -19517.13225526 eV

CRYSTAL
PRIMVEC
        5.17600016     0.00000000     0.00000000
        0.00000000     5.50899976     0.00000000
        0.00000000     0.00000000     9.26300011
PRIMCOORD
23 1
Ti      1.93138203     3.23357299     3.38969700    -1.19520757    -0.49923283     2.74931145
Ti      3.34728900     2.28397801     5.87941198     0.75948796    -0.06536184    -2.55678872
Ti      4.35355701     2.05408198     1.55082299     1.38032604    -0.26732849    -1.86825090
Ti      0.89383800     3.38120799     7.72758798    -2.60504115     0.43398232     1.90140297
Ti      1.85081701     0.21846199     1.34570600     1.68024894    -0.75648157    -1.06454046
Ti      3.24527802     5.28030798     7.87705298     0.12739872    -0.54324036     2.39909622
Ti      0.76281599     0.57647802     5.90309901    -0.60685745    -0.71933502    -2.98797728
Ti      4.45815201     4.88452700     3.40164402     1.13822728    -0.20855408     2.89690697
O       1.70646698     1.84096198     4.73815901     0.76164203     0.26553823    -0.06601053
O       3.57296399     3.53516698     4.50086498     0.13332563     0.18133509    -0.51564341
O       5.17154999     2.66812498     9.21457398    -0.33420343    -0.62638524     0.41060918
O       3.62124200     0.41434801     0.39335899     0.10965605     1.49536135    -1.06348091
O       1.69765899     4.73018600     9.03588702    -0.62011303    -0.16513405    -0.30050756
O       4.23153201     0.73901000     4.95340302    -0.08410416    -0.61160165    -1.05561873
O       1.02428898     4.69292499     4.45866002    -0.40194739     0.18927723     0.46776200
O       0.26426397     3.39908000     2.47644602    -0.73877694    -0.48114743    -0.34062244
O       0.04070400     2.26916899     6.45718898    -1.09464141     0.49315294     1.48239399
O       2.58721801     1.81100097     2.25677698     0.45369600     0.32277667    -0.96853415
O       2.47748199     3.73587999     6.91489899     1.63124600    -0.13694832    -0.33383859
O       0.23493999     0.58678698     2.21408201    -0.74066953     1.16062442    -0.22108950
O       4.92180399     4.78939501     7.13863301     0.62698765     0.53288678     0.34600145
O       2.35544102     1.12139200     7.07039402    -0.69939920    -0.01752105     0.65729223
O       2.85351799     4.53042101     2.31587301     0.31871895     0.02333637     0.03212595
