# total energy = -19899.52965504 eV

CRYSTAL
PRIMVEC
        7.39226836     0.00000000     0.00000000
        0.00002327     2.98426554     0.00000000
        0.00000000     0.00000000    11.44138833
PRIMCOORD
24 1
Ti      2.67935563     1.76847296     4.24467349    -0.67062469     0.46052563     0.37505236
Ti      4.71293621     1.21579248     7.19671495     0.67062469    -0.46052563    -0.37505236
Ti      6.37536364     1.21579350     1.47597502    -0.66871898    -0.46073749    -0.37305512
Ti      1.01692820     1.76847210     9.96541352     0.66871898     0.46073749     0.37305512
Ti      2.67934409     0.27634024     1.47602089    -0.67031153     0.45514688    -0.37407637
Ti      4.71294775     2.70792530     9.96536765     0.67031153    -0.45514688     0.37407637
Ti      1.01691667     0.27633917     7.19666908     0.66907148     0.45506589    -0.37375549
Ti      6.37537517     2.70792637     4.24471935    -0.66907148    -0.45506589     0.37375549
O       2.33970790     1.05081061     5.83845288     6.23887515    -0.73956319     1.90428209
O       5.05258399     1.93345483     5.60293556    -6.23887515     0.73956319    -1.90428209
O       1.35648605     1.05082263     0.11779551    -6.23797887    -0.74006044     1.90268209
O       6.03580589     1.93344281    11.32359262     6.23797887     0.74006044    -1.90268209
O       5.05257246     0.44132206     0.11775840    -6.23655370     0.73971128     1.90413194
O       2.33971938     2.54294338    11.32362973     6.23655370    -0.73971128    -1.90413194
O       6.03579436     0.44131004     5.83849004     6.23957603     0.74050395     1.90366888
O       1.35649743     2.54295545     5.60289840    -6.23957603    -0.74050395    -1.90366888
O       0.26859238     1.81519946     3.09060441     1.02955725    -0.44691472     1.67865871
O       7.12369946     1.16906597     8.35078403    -1.02955725     0.44691472    -1.67865871
O       3.96473630     1.16903824     2.63012614     1.03283386     0.44645912    -1.67976505
O       3.42755560     1.81522725     8.81126209    -1.03283386    -0.44645912     1.67976505
O       0.26858085     0.32306669     2.63008960     1.02976525    -0.44578934    -1.67945678
O       7.12371099     2.66119875     8.81129863    -1.02976525     0.44578934     1.67945678
O       3.42754406     0.32309443     8.35082046    -1.03283566    -0.44650257    -1.67916496
O       3.96474783     2.66117101     3.09056793     1.03283566     0.44650257     1.67916496
