# total energy = -19926.68891860 eV

CRYSTAL
PRIMVEC
        6.12745098     0.00000000     0.00000000
        2.79327661     5.89296647     0.00000000
        0.00000000     0.00000000    11.26983042
PRIMCOORD
24 1
Ti      3.87619934     3.49216644     4.18102668     0.45685718    -2.76128072     0.65517184
Ti      5.04452804     2.40079995     7.08880380    -0.45685718     2.76128072    -0.65517184
Ti      6.42251496     2.40080194     1.45384355    -1.43588966    -1.12379721     0.57045473
Ti      2.49821254     3.49216467     9.81598711     1.43588966     1.12379721    -0.57045473
Ti      2.47956118     0.54568330     1.45388871     0.45685718    -2.76128072    -0.65517184
Ti      6.44116625     5.34728327     9.81594195    -0.45685718     2.76128072     0.65517184
Ti      1.10157422     0.54568113     7.08875863     1.43588966     1.12379721     0.57045473
Ti      7.81915326     5.34728543     4.18107191    -1.43588966    -1.12379721    -0.57045473
O       2.92293704     2.07501365     5.75090820     1.75509609     2.11499539    -0.98744796
O       5.99779034     3.81795275     5.51892234    -1.75509609    -2.11499539     0.98744796
O       2.10795582     2.07503745     0.11602924     0.22794355    -1.08752716     1.61592891
O       6.81277165     3.81792905    11.15380099    -0.22794355     1.08752716    -1.61592891
O       4.60115216     0.87146948     0.11599263    -1.75509609    -2.11499539    -0.98744796
O       4.31957524     5.02149697    11.15383754     1.75509609     2.11499539     0.98744796
O       5.41613345     0.87144573     5.75094475    -0.22794355     1.08752716     1.61592891
O       3.50459389     5.02152074     5.51888573     0.22794355    -1.08752716    -1.61592891
O       1.92165360     3.58443630     3.04426236     0.66062978     2.75891144     2.58613042
O       6.99907372     2.30853011     8.22556818    -0.66062978    -2.75891144    -2.58613042
O       4.38058341     2.30847527     2.59068872     0.89409169     1.88688035     1.38270020
O       4.54014397     3.58449113     8.67914157    -0.89409169    -1.88688035    -1.38270020
O       0.52501540     0.63795298     2.59065272     0.66062978     2.75891144    -2.58613042
O       8.39571192     5.25501343     8.67917757    -0.66062978    -2.75891144     2.58613042
O       3.14350577     0.63800780     8.22560405    -0.89409169    -1.88688035     1.38270020
O       5.77722161     5.25495859     3.04422636     0.89409169     1.88688035    -1.38270020
