# total energy = -19909.67383072 eV

CRYSTAL
PRIMVEC
        7.46990474     0.00000000     0.00000000
        0.00003156     5.87626261     0.00000000
        0.00000000     0.00000000    11.89323908
PRIMCOORD
24 1
Ti      2.70749991     3.48226782     4.41230687     0.50665355    -0.84953985     1.22743611
Ti      4.76243645     2.39399498     7.48093227    -0.50665355     0.84953985    -1.22743611
Ti      6.44232327     2.39399702     1.53426518     0.50658182     0.84952314    -1.22779118
Ti      1.02761310     3.48226605    10.35897410    -0.50658182    -0.84952314     1.22779118
Ti      2.70748426     0.54413665     1.53431287     0.50665355    -0.84953985    -1.22743611
Ti      4.76245210     5.33212635    10.35892641    -0.50665355     0.84953985     1.22743611
Ti      1.02759745     0.54413441     7.48088459    -0.50658182    -0.84952314    -1.22779118
Ti      6.44233891     5.33212859     4.41235456     0.50658182     0.84952314     1.22779118
O       2.36428317     2.06913200     6.06902887     0.79170132     1.47216202    -1.26770140
O       5.10565326     3.80713081     5.82421028    -0.79170132    -1.47216202     1.26770140
O       1.37073517     2.06915570     0.12244758    -0.79153548     1.47267007    -1.26877509
O       6.09920132     3.80710717    11.77079123     0.79153548    -1.47267007     1.26877509
O       5.10563761     0.86899944     0.12240900    -0.79170132    -1.47216202    -1.26770140
O       2.36429881     5.00726337    11.77082981     0.79170132     1.47216202     1.26770140
O       6.09918568     0.86897580     6.06906746     0.79153548    -1.47267007    -1.26877509
O       1.37075069     5.00728707     5.82417169    -0.79153548     1.47267007     1.26877509
O       0.27141813     3.57427602     3.21266059    -1.41171639     0.30441333     0.01407422
O       7.19851830     2.30198679     8.68057856     1.41171639    -0.30441333    -0.01407422
O       4.00637854     2.30193198     2.73399681    -1.41138832    -0.30423438    -0.01421178
O       3.46355788     3.57433089     9.15924214     1.41138832     0.30423438     0.01421178
O       0.27140248     0.63614471     2.73395882    -1.41171639     0.30441333    -0.01407422
O       7.19853395     5.24011816     9.15928013     1.41171639    -0.30441333     0.01407422
O       3.46354224     0.63619952     8.68061648     1.41138832     0.30423438    -0.01421178
O       4.00639419     5.24006328     3.21262260    -1.41138832    -0.30423438     0.01421178
