# total energy = -4978.00494803 eV

CRYSTAL
PRIMVEC
        4.68904723     0.00000000     0.00000000
        0.00000000     2.78680622     0.00000000
        0.00000000    -0.00011125     6.35350516
PRIMCOORD
6 1
Ti      2.34452361     1.39334731     3.17675229     0.00000000     0.00000000     0.00000000
Ti      0.00000000     0.00000000     0.00000000     0.00000000     0.00000000     0.00000000
O       2.34452361     0.54308574     1.23820448    -0.00000000     0.12807184     2.86423055
O       2.34452361     2.24360888     5.11530010    -0.00000000    -0.12807184    -2.86423055
O       0.00000000     0.85021756     4.41495817     0.00000000    -0.12828113     2.86871507
O       0.00000000     1.93647706     1.93854641     0.00000000     0.12828113    -2.86871507
