# total energy = -39026.47032937 eV

CRYSTAL
PRIMVEC
        5.93200024     0.00000000     0.00000000
        0.00000000     9.29399984     0.00000000
        0.00000000     0.00000000     9.29399984
PRIMCOORD
46 1
Ti      4.45838802     6.78197099     7.03096698    -1.76873400     1.98482167    -0.81640526
Ti      4.51543000     7.07730502     1.91611600    -1.50839788    -0.49043991     0.86152325
Ti      4.12260802     2.47604501     6.77664598     3.02845391    -0.56606431     0.68590887
Ti      4.53808000     1.76184702     2.82443902     0.06731048     1.33193606    -0.68907056
Ti      1.38394800     7.32828098     6.61204402    -1.22126906    -0.09817170     0.27087687
Ti      1.47101898     6.70870698     2.40374601     1.82496070     1.19571279    -0.25442386
Ti      1.44709102     2.28306000     8.17689799    -2.74190796    -8.17415113    -0.85756067
Ti      1.49697698     2.12256900     4.24603999     1.66856995     2.14569128    -1.26575610
Ti      3.10406702     4.78640701     4.36612798    -0.41376624     1.01574399     0.73883968
Ti      2.95582298     4.96938502     8.91847799     3.53541111    -0.27460806     4.08672088
Ti      3.06831802     9.07478499     4.60498700     1.86267263    -0.51283963     0.62376066
Ti      3.03797997     0.13057602     0.14078501    -2.20620093     0.00341700    -1.35777052
Ti      5.92208298     4.64844902     4.28839999    -0.37857194     0.73339948     1.48932466
Ti      5.90592599     5.11586800     9.10627199    -1.24660034    -1.70727484     1.66876227
Ti      0.13661901     9.02023999     4.25631899    -1.35089975    -1.93069504     1.52710806
Ti      5.74391202     9.25779401     9.07336399     2.26931228     0.88130507    -0.51468825
O       4.41145900     5.96776199     5.44015899    -0.22155101    -4.16946595    -1.63787277
O       4.41282099     5.23978300     1.04186401     0.11507002     1.69696008    -1.50589645
O       4.37967698     1.09272102     5.02061499     0.65959696    -1.01433194     0.92346655
O       4.60222502     1.25135597     0.98370701    -0.29221987    -1.14840782     0.19825295
O       1.53772400     5.97330300     5.21361699    -0.61431828    -2.09996934     0.62804386
O       1.48056799     5.77691199     0.86590898     0.42914659    -1.34475199    -1.39092439
O       1.37247703     0.63170698     5.28344198     1.88905241     0.14865738     2.23594475
O       1.32520599     1.11587998     0.51868202     0.41424601     0.83567903    -0.95021040
O       4.16546503     8.25831497     8.20570401     1.73857340     2.07714051     2.83239360
O       4.58985402     8.58168598     3.30654002    -1.84127127    -1.16481352     0.29476012
O       4.48775900     4.07339099     8.09957000     0.58437057    -0.85719866    -1.58601360
O       4.45993899     3.71926102     3.23661502    -0.08748413    -0.53599010     0.58245613
O       1.62360402     8.66797199     8.17471598    -1.90417462    -0.14180513     0.54867336
O       1.63405500     8.01999201     3.74342400    -0.50423954     1.44922469     0.01955942
O       1.58911600     3.82077997     8.69690502    -2.86192273     4.10899950     1.11444739
O       1.47275998     3.97156400     3.51957302     2.12641546     0.22490836    -1.93410793
O       2.60743999     6.10576300     7.77328201     0.42025674     2.24278697    -2.77570641
O       3.19445203     6.18795899     3.19375801    -0.46560407    -0.08394295    -1.43913490
O       3.19236199     1.88292701     8.33523502     0.93093895    -0.96101393    -2.09242932
O       2.93183803     1.11388297     3.12704098    -2.39576047     0.66217115    -0.32081517
O       0.14344302     6.32118100     7.85622700     0.66618053     0.58692136    -0.62569490
O       5.84779200     6.06458301     2.95633301    -0.86338807    -0.46229712     1.07820074
O       5.69751000     1.43597999     7.69535097     0.20551375     0.52840792    -0.10973781
O       2.95180198     8.07237802     6.24780402     1.18713276     0.69153650    -2.60498407
O       3.02282302     8.04113201     1.28350799    -0.60791443    -1.32195144     1.05237400
O       2.96701302     2.95803801     5.49901101    -1.43482239     1.50577021     0.15543996
O       5.54574001     7.98932502     5.96731801     2.44894016     0.57720362    -0.41204129
O       0.01917098     7.96634201     1.34129901     1.33985558     0.24198538    -1.43170750
O       0.20758200     2.88777000     5.12197000    -2.67058450     1.87156608     3.11376443
O       0.37121303     1.19303900     3.04821903     0.18962176     0.31823790    -0.15765033
