# total energy = -39030.08391543 eV

CRYSTAL
PRIMVEC
        7.60600008     0.00000000     0.00000000
        0.00000000     7.60600008     0.00000000
       -3.79573973    -3.79573973     9.71340985
PRIMCOORD
46 1
Ti      2.14674843     4.65720145     5.99888962    -1.43836177     0.69140281     0.19584126
Ti      3.71227599     7.03034901     1.28172800     0.28388820    -3.18302329     2.14697144
Ti      2.17323545     0.64649246     6.08365461     1.02515783     0.88096311    -0.01280256
Ti      3.69469900     2.98933800     1.25392100    -0.71084267    -1.33591459     2.58608440
Ti     -1.73587453     4.77521745     6.03454363     0.41473478     1.91668767    -1.12951303
Ti      0.07311700     6.71466901     1.18663500    -1.52453284    -0.61423934    -1.92262923
Ti     -1.76963757     0.99501145     6.06847961    -2.03937459    -1.21529895    -2.94144518
Ti     -0.15485600     2.91732597     1.21287098     1.40969036    -0.33226558    -0.15553971
Ti      3.76396444     0.99696047     8.53314662     0.76940908    -0.76132913    -2.46167021
Ti      5.57637202     2.78629200     3.72528602    -0.89299382    -0.80804583    -0.22850122
Ti      3.78183644    -2.66146158     8.30274062    -1.09743902     0.02622449     1.83090252
Ti      5.77451201    -1.10493501     3.36314098    -1.65126848     0.68568853     3.03054114
Ti     -0.06228956     1.14701048     8.28291362     1.47861807    -0.19491000     1.63929536
Ti      1.67738801     2.81180999     3.76550900     0.67473768    -0.99400608    -1.69942114
Ti     -0.05816753    -2.81946956     8.60377464     1.27885125     2.01301229     0.14142050
Ti      1.76562201    -1.00186800     3.77641000     3.09203423    -0.26339162     0.15852528
O       2.45838843    -1.06493154     5.84635063    -1.52116984    -1.22485266    -2.13653558
O       3.69395000     1.11234899     0.93081199    -0.03363416     2.33337186    -1.51718128
O      -1.94777953     2.93819143     5.72889460     0.36410100    -2.54326446    -0.59645836
O       0.01665400     4.74274200     0.76834499     0.51296252    -0.29995015     1.14535206
O       5.40050043    -0.98590654     5.38368561     1.55097768    -2.56082124     2.14477186
O      -0.01571699     0.84811799     0.59890201     0.00984347     1.33957713     0.14436930
O       3.54697747     2.67657943     8.85528962     0.49355480     3.94713076     0.56356005
O       5.75338302     4.67566201     4.11509503    -0.63938423    -0.41840554    -1.39601158
O       3.62061042    -0.75816257     8.85203862     1.00526726    -4.75553500     1.36901987
O       5.82223502     0.68602099     4.07335897     0.19921866     3.01097529    -1.27089548
O       0.13016744     3.05772046     9.09197362    -0.15978615    -3.26002581    -2.29451193
O       1.98325097     4.64643799     4.09838599     0.22912806    -0.74629614    -0.35326893
O      -0.05088357    -0.57371355     9.17460465     0.13643127     0.46075883    -1.35729666
O       1.69466300     0.81260702     4.21203299    -0.16412515     1.57633853     0.21342504
O       1.91252247     0.65402646     7.88213065    -0.55504379     1.70331714     1.53936683
O       3.67934000     2.44671801     3.24160500     1.06724681     1.46662335     0.59952209
O       1.97834444    -2.59138554     8.03259564    -0.93618375    -0.82031205     0.37634151
O       3.65279498    -0.98583298     3.07998501     2.55159535    -0.20230810     0.53567540
O      -1.87541656     0.96861546     7.97619460     0.34530263     0.59748089     1.91768397
O      -0.14722701     2.81461701     3.31214602     0.15400528    -0.07764709    -0.11857932
O      -1.84515656    -2.70591157     8.17535660     0.83724509     0.01028622    -1.15742854
O       0.05104100    -1.19931203     3.64464401    -2.54101731    -0.07252262    -1.87190572
O       3.88804846     4.50956745     6.39280562     2.22668184    -0.37978087     1.65181304
O       5.73001000     6.41266898     1.39486800    -0.74935652     0.80756915     1.95551648
O       4.06121743     0.65709643     6.43788163    -3.06302781     2.10375941     0.57313382
O       5.63705102     2.88690500     1.68895201    -1.00076628     0.48012927    -0.18534550
O       0.34005443     4.58284146     6.12666460    -3.87061315    -0.12431366     1.76537382
O       1.77906301     6.63636400     1.82375198     0.12486644     0.22012894    -1.53822783
O       0.00817743     1.01812343     6.45344865     1.79890282    -0.07713132    -0.77341383
O       1.71668503     2.68788901     1.80165898     0.55446863     0.99416549    -1.10592444
