# total energy = -19070.84862081 eV

CRYSTAL
PRIMVEC
        5.93400000     0.00000000     0.00000000
        0.00000000     9.29699974     0.00000000
        0.00000000     0.00000000     4.64899994
PRIMCOORD
22 1
Ti      4.45168901     6.83580599     2.57180800    -3.31555394    -2.95990314     1.30109284
Ti      4.37371300     2.37552102     2.23047798     0.43894532    -0.30697106    -0.57781374
Ti      1.49271700     7.38555199     2.52046701     1.36555093    -1.17836350     2.46728833
Ti      1.57418003     2.41798199     1.94578200    -0.00366639     0.02404342     0.28710748
Ti      3.02058899     4.60341402     4.42658802     0.33975058     1.30050329     1.12481254
Ti      3.01036698     9.24890198     0.08808801     1.34441260    -0.11050348     0.06591925
Ti      5.83667002     4.38054298     4.18473401     0.45356231     0.00603387     0.82672542
Ti      0.06552299     9.01397199     0.42633398    -2.17933881    -0.13176112     0.73908110
O       4.23576300     5.37737602     0.97943697    -0.11192145     0.19478428     0.04178430
O       4.50143098     0.60481901     1.05618101     0.65517158     3.00029878     1.16098283
O       1.57774800     0.55567601     1.24107898    -1.77108116     2.13242670     0.46850016
O       4.41807800     8.26186898     4.00489900     0.98351572     1.14067523    -0.41188497
O       4.21049198     4.17953601     3.17956399     1.15137976    -1.57768913    -0.39869623
O       1.37804498     8.68854402     3.84922399     0.34414948    -0.71741852    -2.11554637
O       1.51974600     4.12949500     3.18754298    -0.10136964    -0.60768714     1.73871636
O       2.97507498     6.42452398     3.73627201    -2.49752734    -0.68131816    -1.14235030
O       2.92410600     1.70637300     3.11329603     0.73930865    -0.92026450     1.72556156
O       0.02904299     6.24389202     3.55958300     0.64598065    -1.57805577     0.59278631
O       2.97694398     8.03437600     1.73091000     0.88128682    -1.38211681    -0.93606162
O       3.10734299     2.82417702     0.87705202    -0.60700194     1.46291196    -0.18917130
O       5.77448000     7.64364798     1.78748402     2.12862404     3.11475174    -4.28734902
O       0.14634101     3.39908100     1.33141102    -0.88417777    -0.22437666    -2.48148494
