# total energy = -19961.02906087 eV

CRYSTAL
PRIMVEC
        7.60600008     0.00000000     0.00000000
        0.00000000     7.60600008     0.00000000
       -1.89786986    -1.89786986     4.85670466
PRIMCOORD
24 1
Ti      3.87450702     6.53458401     1.22624000    -0.30044226     0.63092247    -0.06484325
Ti      3.79790999     2.78691701     1.34562001     0.50988723    -0.52178681    -2.32350653
Ti      0.07599901     6.78274999     1.18285599     0.35013759     1.22153414    -0.05271766
Ti      0.01418502     2.99116001     1.24751700    -1.04926476    -1.14371530    -0.98801052
Ti      5.65934023     2.96072724     3.68368481     0.12729742    -1.08489795    -0.45372146
Ti      5.76981122    -0.88886876     3.56021680    -1.02726254     1.12371134     0.56886887
Ti      1.79192223     2.77510525     3.61655079     0.27018088    -1.18306785     1.06086507
Ti      1.84423225    -1.06787276     3.57502381     1.45002944     0.56149211     1.35561773
O       3.96865501     4.63905797     0.89172801    -0.47067917    -0.51467514    -0.68982621
O       3.86093299     0.82580899     0.68991299    -0.01684665     1.35462477     0.62043236
O      -0.03278899     4.86666399     0.90354999     0.11961008    -0.94171882    -1.20697217
O       0.06967502     1.05510202     0.76299702    -0.25999108    -0.84921821    -0.11161574
O       5.80786923     4.91555325     4.01942581    -0.33886818    -2.13078120     0.20835148
O       5.53122923     0.98591823     4.03878280     0.32548635     1.33598041     0.52773532
O       1.74581623     4.66078520     4.12334781     0.15246493    -0.41530736    -1.19796097
O       1.83697321     0.89589121     3.99864783     0.13887433     0.49869161     0.49036535
O       3.70680424     2.87560125     3.19560579     0.80697317     0.34646476     0.72287595
O       3.72571021    -1.04570875     3.17632781     1.23979849     0.11479106    -0.12011273
O      -0.05426977     2.82235824     3.22721080    -0.41936097     0.34125571     0.58772560
O       0.01236920    -0.79033876     3.25238683    -0.09433407    -0.17449518    -1.16459035
O       5.79082602     6.66032901     1.53433298    -0.26516697     0.19997122     0.89996846
O       5.71635898     2.77462402     1.74050599    -0.73820821     0.17104707    -0.03258335
O       1.98759901     6.51365198     1.45208201    -1.89747329     0.24510901     1.09362736
O       1.79487901     2.67393000     1.62924298     1.38715849     0.81406813     0.27002687
