# total energy = -4981.61195409 eV

CRYSTAL
PRIMVEC
        4.42351758     0.00000000     0.00000000
        0.00000000     2.97042377     0.00000000
        0.00000000    -0.00009520     5.89369839
PRIMCOORD
6 1
Ti      2.21175879     1.48516423     2.94684908     0.00000000     0.00000000     0.00000000
Ti      0.00000000     0.00000000     0.00000000     0.00000000     0.00000000     0.00000000
O       2.21175879     0.57887328     1.14859499     0.00000000    -0.07031815     2.47803092
O       2.21175879     2.39145523     4.74510317     0.00000000     0.07031815    -2.47803092
O       0.00000000     0.90625319     4.09544520     0.00000000     0.06963064     2.47810317
O       0.00000000     2.06407526     1.79825291     0.00000000    -0.06963064    -2.47810317
