# total energy = -19517.96282421 eV

CRYSTAL
PRIMVEC
        7.60600008     0.00000000     0.00000000
        0.00000000     7.60600008     0.00000000
       -1.89786986    -1.89786986     4.85670466
PRIMCOORD
23 1
Ti      3.72197898     6.56129100     1.32824400     1.54854490     0.24143953    -1.02866250
Ti      3.77732801     2.86409498     1.06819201     0.82962382    -0.60879503     1.30977854
Ti     -0.03587801     6.52109602     1.25024100    -1.06702183     1.77174605     0.03878793
Ti      0.04295501     2.90293098     1.06949500    -0.72429006    -1.75788420     0.80183687
Ti      5.59651123     2.98634820     3.63747282    -0.36777947    -1.03170335    -1.49534130
Ti      5.72932721    -0.94329380     3.71413880    -0.30442695     0.52086147     0.27304611
Ti      1.94237420     2.92654821     3.60294183     1.34672171     0.05925752     0.11981139
Ti      1.86600821    -0.92359078     3.62873181     0.07109977    -0.30369290     1.48226878
O       4.05771702     4.66337298     0.80920399    -1.18877210     1.19249763     0.10104079
O       3.56152598     0.96044200     0.73968200     0.29117060    -0.36173352     0.26252567
O      -0.20382997     4.72539700     0.68391799     0.52038402     1.34376468     1.23717236
O       0.11032600     0.92442699     0.86090201     0.02971116    -0.49693169    -0.35529394
O       5.91892623     4.78748420     4.03325581    -0.21404802    -1.06741187     0.39726824
O       5.66223224     0.97044324     4.10024181     0.79231941    -0.20593130    -1.46024187
O       1.99534722     4.70063023     4.13676679    -0.84436370     0.75799312     0.12260619
O       2.09139321     1.01929921     3.89502582    -1.39943680    -1.31324285     0.93563199
O       3.82390625     2.88291522     3.41362581    -0.27625357     0.36714981    -1.97729759
O       3.86915424    -0.89831479     3.24085680    -1.44643016    -0.35658797     0.01932236
O      -0.08761080    -0.99575077     3.21975781     1.87182704     0.59111895     0.14141561
O       5.70295201     6.62748398     1.64880598    -0.27743910     0.21708243    -0.38053318
O       5.81545001     2.73994698     1.66623999    -0.32271522     0.18649169     0.64249398
O       1.82603802     6.26320599     1.81611097     0.99520987     0.21939926    -1.62087083
O       1.88889798     3.04695001     1.57096199     0.13636468     0.03511203     0.43323464
