# total energy = -19902.18359489 eV

CRYSTAL
PRIMVEC
        6.72977871     0.00000000     0.00000000
        2.75484679     6.61154327     0.00000000
        0.00000000     0.00000000    12.30303161
PRIMCOORD
24 1
Ti      4.07174081     3.91799454     4.56433697    -0.28784899    -2.00746127     0.46462577
Ti      5.41288480     2.69354891     7.73869477     0.28784899     2.00746127    -0.46462577
Ti      6.92632757     2.69355116     1.58712971     0.00482493    -1.10791319     0.14515965
Ti      2.55829809     3.91799256    10.71590210    -0.00482493     1.10791319    -0.14515965
Ti      2.69431755     0.61222288     1.58717903    -0.28784899    -2.00746127    -0.46462577
Ti      6.79030810     5.99932077    10.71585278     0.28784899     2.00746127     0.46462577
Ti      1.18087467     0.61222045     7.73864538    -0.00482493     1.10791319     0.14515965
Ti      8.30375098     5.99932321     4.56438630     0.00482493    -1.10791319    -0.14515965
O       3.10004582     2.32803685     6.27814288     1.78559453     2.00349483    -0.75518984
O       6.38457972     4.28350662     6.02488887    -1.78559453    -2.00349483     0.75518984
O       2.20495079     2.32806356     0.12666661    -0.26586811    -0.71487930     1.54503406
O       7.27967491     4.28348001    12.17636473     0.26586811     0.71487930    -1.54503406
O       5.00715643     0.97773483     0.12662667    -1.78559453    -2.00349483    -0.75518984
O       4.47746918     5.63380863    12.17640467     1.78559453     2.00349483     0.75518984
O       5.90225154     0.97770816     6.27818275     0.26586811     0.71487930     1.54503406
O       3.58237395     5.63383538     6.02484892    -0.26586811    -0.71487930    -1.54503406
O       1.92016244     4.02151560     3.32335579     0.61332789     2.66780154     2.54640223
O       7.56446310     2.59002787     8.97967595    -0.61332789    -2.66780154    -2.54640223
O       4.68857830     2.58996634     2.82819921     0.54142490     2.09616591     1.61857226
O       4.79604724     4.02157713     9.47483233    -0.54142490    -2.09616591    -1.61857226
O       0.54273914     0.71574374     2.82815988     0.61332789     2.66780154    -2.54640223
O       8.94188647     5.89579972     9.47487160    -0.61332789    -2.66780154     2.54640223
O       3.41862395     0.71580533     8.97971515    -0.54142490    -2.09616591     1.61857226
O       6.06600159     5.89573813     3.32331653     0.54142490     2.09616591    -1.61857226
