# total energy = -19072.52362047 eV

CRYSTAL
PRIMVEC
        5.17600016     0.00000000     0.00000000
        0.00000000     5.50899976     0.00000000
        0.00000000     0.00000000     9.26300011
PRIMCOORD
22 1
Ti      1.69809900     3.50140600     3.16640801     3.32630373     1.08361086     1.54485099
Ti      3.75107198     2.43037098     6.03658800    -2.19852490    -0.48349381    -1.94486363
Ti      4.39323101     2.12354100     1.46507701     0.22402879    -1.04782983    -0.15202013
Ti      1.21883300     2.62166401     7.74375201     0.29031056     1.00399096     0.49272768
Ti      1.75610302     0.71336401     1.15976698    -1.05530403     1.08482313    -1.05306305
Ti      3.22656901     5.47450799     8.01390298    -0.23791738    -0.92595898    -1.85392573
Ti      0.75290900     5.30242801     6.46059000     0.73132383    -1.49152449     1.80464872
Ti      4.31060797     5.15467802     3.56776599    -1.22079314    -0.05232583     2.56664968
O       3.22972799     3.74635400     4.40705201     0.22836855    -1.39471342     0.01302239
O       0.80024602     2.25112002     0.24932303    -0.13145387     0.28424199     0.06966175
O       4.94836102     3.40246398     6.95826501     1.07505782     3.37602502    -0.38063962
O       3.51600298     0.62015499     0.42004301     1.49457999     0.60885262    -0.59589940
O       1.42131199     4.85260698     8.30235401    -0.91130317     0.74203710     3.24063968
O       3.80382302     0.79697401     4.92017799     0.60358109     0.81754117    -1.34123035
O       0.73798599     4.84924300     4.73386601     0.17496364    -1.01895581    -2.35015063
O       5.16318899     3.32075298     2.67931501    -1.14506513     0.99729992    -0.21291879
O       4.91934798     1.15998601     7.30822501    -0.44835016    -0.54094488    -0.35596191
O       2.68501499     2.05999501     2.30215499    -1.11719153     0.67343927     0.02230227
O       2.55124502     3.85691601     6.79861202     0.69888163    -1.55036575    -0.78669050
O       0.14438501     0.74340598     2.31353600     0.11269124    -0.72995446     0.20767271
O       2.39145899     1.28580203     6.93429799    -1.00489110     0.52694290    -0.36888453
O       2.43437299     4.93321999     2.24386098     0.51070278    -1.96273717     1.43407266
