# total energy = -19960.44475179 eV

CRYSTAL
PRIMVEC
        5.93400000     0.00000000     0.00000000
        0.00000000     9.29699974     0.00000000
        0.00000000     0.00000000     4.64899994
PRIMCOORD
24 1
Ti      4.47843903     6.81508002     2.33015503    -2.24241931     2.46379369     0.60923083
Ti      4.43598298     2.47005399     2.40568698     0.86700330    -1.48168873    -0.57784151
Ti      1.47491600     6.97033999     2.17765699     2.01835941     1.60033028     0.64315989
Ti      1.45752698     2.29527701     2.33163201    -0.67632919    -0.00603464     0.50773727
Ti      3.01893600     4.65352700     0.08173698    -1.57657919    -0.02470882    -0.41715573
Ti      2.93492101     0.11950701     0.01022000     1.16973102    -1.75790991    -0.55067574
Ti      0.00886102     4.70323299     4.53061903     1.58786788    -0.97748442     0.34189128
Ti      0.00021998     0.00297302     0.10745801    -1.85725608    -0.45038905    -1.62833012
O       4.45643801     5.51053998     0.94510099     0.37626900    -0.30226826    -0.36168107
O       4.40786202     0.81857302     1.00066402     0.95382589     0.47371848     0.27500144
O       1.45985800     5.51187600     0.82584301    -0.04804545     0.00917910     0.56623066
O       1.43216901     0.84827701     1.01909500     0.09101966     0.20388264    -0.00469921
O       4.44145398     8.44693698     3.75345598     0.55654942    -0.52371257    -0.32929005
O       4.40896297     3.80507902     3.81689698     0.50965274    -0.92947291    -1.03829874
O       1.58006702     8.44398300     3.65997698    -1.10114193    -0.35584081     0.12106892
O       1.47837100     3.78175802     3.61246199    -0.15331391     0.29565872     1.09841913
O       3.06476100     5.96854999     3.22204999    -0.39840132     0.32313585    -0.05231683
O       2.96400798     1.42413198     3.35775898    -0.13521231     1.58531991    -1.09895880
O       5.91493502     6.05081800     3.19667002     0.66887659    -0.33156213     0.47736893
O       5.82033897     1.50725202     3.24752999     0.77311635    -0.42576044     0.59130252
O       2.95807098     7.72712802     1.31391901    -0.18784050    -0.20864073     0.85200168
O       2.96236700     3.07209900     1.31369200    -0.21319158     0.91783429     0.23471275
O       0.06204000     7.79542998     1.31139600    -0.36500320    -0.30766166     0.51000601
O       0.02386002     3.24984201     1.48477399    -0.61753730     0.21028161    -0.76888329
