# total energy = -4971.78989822 eV

CRYSTAL
PRIMVEC
        5.24073801     0.00000000     0.00000000
       -0.00000742     2.82193620     0.00000000
       -2.62039810    -1.41103160     5.65371724
PRIMCOORD
6 1
Ti     -0.00022431     2.11654938     1.41342909    -0.00988898    -0.01211144    19.50320257
Ti      2.62055641    -0.70564461     4.24028771     0.00988898     0.01211144   -19.50320257
O       0.00005563     0.70547300     0.92094428     0.00855201     0.01256036   -12.89348164
O       2.62027635     0.70543166     4.73277263    -0.00855201    -0.01256036    12.89348164
O      -0.00002140    -0.70549213     3.74780289    -0.00208079     0.00003831    -2.07616477
O       2.62035327     2.11639679     1.90591401     0.00208079    -0.00003831     2.07616477
