# total energy = -4985.26512048 eV

CRYSTAL
PRIMVEC
        2.89142342     0.00000000     0.00000000
        1.53853179     4.26118396     0.00000000
       -0.00001000    -0.00006003     4.60359366
PRIMCOORD
6 1
Ti      2.21497260     2.13056192     2.30179683     0.00000000     0.00000000     0.00000000
Ti      0.00000000     0.00000000     0.00000000     0.00000000     0.00000000     0.00000000
O       1.74554692     0.83043029     0.89717261    -4.60068511     2.12260997     2.48500067
O       2.68439828     3.43069355     3.70642110     4.60068511    -2.12260997    -2.48500067
O       0.46942148     1.30010737     3.19897036     4.60017372    -2.12201579     2.48422651
O       1.06910040     2.96101645     1.40462335    -4.60017372     2.12201579    -2.48422651
