# total energy = -19932.28936311 eV

CRYSTAL
PRIMVEC
        7.13218684     0.00000000     0.00000000
        0.00002510     4.08735585     0.00000000
        0.00000000     0.00000000    10.79040257
PRIMCOORD
24 1
Ti      2.58508966     2.42216342     4.00316254     0.15469485     0.49710035     1.13574333
Ti      4.54712245     1.66519277     6.78724048    -0.15469485    -0.49710035    -1.13574333
Ti      6.15106085     1.66519421     1.39199589     0.15380936    -0.49704482    -1.13550628
Ti      0.98115126     2.42216209     9.39840724    -0.15380936     0.49704482     1.13550628
Ti      2.58507722     0.37848555     1.39203914     0.15469485     0.49710035    -1.13574333
Ti      4.54713489     3.70887075     9.39836399    -0.15469485    -0.49710035     1.13574333
Ti      0.98113882     0.37848394     6.78719723    -0.15380936     0.49704482    -1.13550628
Ti      6.15107328     3.70887231     4.00320579     0.15380936    -0.49704482     1.13550628
O       2.25739107     1.43922754     5.50626001     1.94294610     0.23792946    -0.23339815
O       4.87482103     2.64812859     5.28414300    -1.94294610    -0.23792946     0.23339815
O       1.30876184     1.43924401     0.11109323    -1.94332739     0.23778959    -0.23343954
O       5.82345032     2.64811217    10.67930945     1.94332739    -0.23778959     0.23343954
O       4.87480859     0.60445066     0.11105822    -1.94294610    -0.23792946    -0.23339815
O       2.25740351     3.48290553    10.67934446     1.94294610     0.23792946     0.23339815
O       5.82343789     0.60443419     5.50629501     1.94332739    -0.23778959    -0.23343954
O       1.30877411     3.48292199     5.28410795    -1.94332739     0.23778959     0.23343954
O       0.25914410     2.48616156     2.91475703    -1.10621575     0.44824938     0.86667395
O       6.87306801     1.60119463     7.87564599     1.10621575    -0.44824938    -0.86667395
O       3.82524632     1.60115641     2.48047875    -1.10562542    -0.44800564    -0.86801478
O       3.30696579     2.48619978     8.30992404     1.10562542     0.44800564     0.86801478
O       0.25913166     0.44248358     2.48044431    -1.10621575     0.44824938    -0.86667395
O       6.87308044     3.64487261     8.30995848     1.10621575    -0.44824938     0.86667395
O       3.30695335     0.44252180     7.87568037     1.10562542     0.44800564    -0.86801478
O       3.82525876     3.64483439     2.91472259    -1.10562542    -0.44800564     0.86801478
