# total energy = -19517.88166813 eV

CRYSTAL
PRIMVEC
        5.93400000     0.00000000     0.00000000
        0.00000000     9.29699974     0.00000000
        0.00000000     0.00000000     4.64899994
PRIMCOORD
23 1
Ti      4.48174199     7.11269301     2.17651100     0.26327129    -0.56755709     0.55740689
Ti      4.52849602     2.28428800     2.31031802    -0.74778583    -1.27532446     0.46996466
Ti      1.45519902     7.09937198     2.26560800    -0.72571265    -0.57609984     0.35335455
Ti      1.44744901     2.32666002     2.38140103     1.00686597    -2.04928517     0.44640152
Ti      2.89405302     4.46442498     0.22682199     0.98559574     0.35269481     0.73516017
Ti      2.97610000     9.26549100     4.56061200    -0.70162655     1.21301633    -0.36711947
Ti      5.89774099     4.58427299     4.64464497    -0.54735413     1.40026238    -0.55929639
Ti      5.93331302     9.27156198     0.00788299     0.57982589     1.40617798     0.12633789
O       4.41683300     5.56482002     0.94369999     0.00353964     0.17855418     0.27264297
O       4.43122102     0.91561698     0.92747600     0.23177758     0.24963493     0.31216032
O       1.54264900     5.59374797     0.95280301     0.04123974    -0.20287400    -0.02600003
O       1.54496002     0.86211499     0.89329099    -0.54530650     0.39168226     0.49083972
O       4.54290001     8.46296200     3.66404000    -0.85647180    -0.96758181    -0.71104964
O       4.40305799     3.69236400     3.86057902     0.36991555     0.34998383    -0.77583247
O       1.32656402     8.52989303     3.53088599     1.44645227    -0.80071510     0.56143606
O       1.54475602     3.75035098     3.81343298    -0.46737325     0.11592954    -0.70234903
O       2.90745301     1.35659298     3.24859802     0.88314727     0.73149815    -0.44033243
O       0.06557400     6.14688298     3.27828201    -0.25748631    -0.50958512    -0.40448996
O       0.02191598     1.47839000     3.36852202    -0.40734080     0.81890874    -1.10605505
O       2.94321698     7.96579701     1.27978798     0.50381685    -1.76936983     1.28758529
O       2.97837901     3.12052702     1.46970102     0.04715276     0.99754880    -0.14052987
O       0.00999700     7.87770302     1.34976098    -0.06446966     0.11777739    -0.39185247
O       0.11188802     3.22160300     1.42139301    -1.04167280     0.39472285     0.01161625
