# total energy = -4987.94159572 eV

CRYSTAL
PRIMVEC
        3.74271734     0.00000000     0.00000000
        1.43950001     3.45481878     0.00000000
       -2.59114342    -1.72743255     4.87894268
PRIMCOORD
6 1
Ti      1.07952384     2.59124709     1.21973541     0.00050445    -0.00050445     0.00000000
Ti      1.51155020    -0.86386083     3.65920660    -0.00050445     0.00050445     0.00000000
O       0.35991391     0.86370017     0.79473978    -0.00006196     0.00006428    -1.63264314
O       2.23115996     0.86368602     4.08420229     0.00006196    -0.00006428     1.63264314
O      -0.35988159    -0.86367862     3.23421101     0.00006428    -0.00006196    -1.63264314
O       2.95095540     2.59106476     1.64473110    -0.00006428     0.00006196     1.63264314
