# total energy = -19074.13548180 eV

CRYSTAL
PRIMVEC
        5.93400000     0.00000000     0.00000000
        0.00000000     9.29699974     0.00000000
        0.00000000     0.00000000     4.64899994
PRIMCOORD
22 1
Ti      4.49288599     6.91508298     2.44371800    -0.68869338    -0.01616685    -0.41842508
Ti      4.42975800     2.34316898     2.21998498     0.97062574    -0.61644895     0.38446363
Ti      1.48364198     7.24596302     2.48872802     1.69608565    -0.47765561     0.58201158
Ti      1.58744100     2.36852397     2.19281501    -0.56067039     0.80834871     0.49511341
Ti      3.02477600     4.60194402     4.55114798    -0.25531809     0.28337913    -0.56687704
Ti      2.98802898     0.18242301     0.07879502     0.16459566    -0.91842873    -0.16209886
Ti      5.76831201     4.49124400     4.45766803     0.37131911    -0.66623813    -0.12241258
Ti      5.90664101     9.15924702     0.08299600    -0.32502253    -0.51396140     0.84946657
O       4.40799802     5.55461902     0.75427100    -0.39049518    -0.20336045     1.37912174
O       4.46246899     0.75903999     1.17939999     1.28463469    -0.37032332    -1.11584247
O       1.46829102     0.80219900     1.07755998    -0.91117693     0.71925815    -0.43708873
O       4.48565600     8.25680100     3.84680200     0.08846501     1.61125824     0.18933868
O       4.29579699     3.85300697     3.41489499     0.44401940    -0.26606840     0.69363632
O       1.52964098     8.22184498     4.00853698    -0.27396734     1.56194626    -0.23239567
O       1.43715000     3.89456300     3.59448097     0.53975214    -0.51647928     0.04367612
O       3.00166799     6.17621999     3.29192002    -1.15974742    -1.23377773    -0.18924818
O       2.91185301     1.51426298     3.26947698     0.14700853    -0.76350479     1.05261825
O       0.01449797     6.06128301     3.36714902     0.25310103     0.34552554    -0.92053421
O       2.91528002     8.08459000     1.62335298     0.19520491    -1.29100460    -0.28047223
O       3.08125101     2.90249800     1.13035901    -1.07488787     2.39986935    -1.29845026
O       0.04436601     7.70253598     1.41245298    -0.26380377     0.56213489    -0.13118185
O       0.01797298     3.26399602     1.29954100    -0.25102949    -0.43830229     0.20558137
