# total energy = -19950.29245977 eV

CRYSTAL
PRIMVEC
        4.95523281     0.00000000     0.00000000
        1.29820785     5.11158688     0.00000000
        0.00000000     0.00000000     8.93997280
PRIMCOORD
24 1
Ti      2.56535039     3.02912180     3.31666631     2.12826203    -1.58389732     0.79969026
Ti      3.68809042     2.08246542     5.62330699    -2.12826203     1.58389732    -0.79969026
Ti      4.80245986     2.08246718     1.15328464    -3.76590083    -0.16288150     1.68956353
Ti      1.45098098     3.02912024     7.78668876     3.76590083     0.16288150    -1.68956353
Ti      1.91624657     0.47332840     1.15332049     2.12812679    -1.58450102    -0.79949202
Ti      4.33719426     4.63825902     7.78665291    -2.12812679     1.58450102     0.79949202
Ti      0.80187706     0.47332644     5.62327114     3.76604429     0.16354870     1.68918712
Ti      5.45156377     4.63826093     3.31670216    -3.76604429    -0.16354870    -1.68918712
O       2.02548353     1.79987675     4.56199990    -0.82919959    -0.07687164    -0.80205927
O       4.22795723     3.31171048     4.37797340     0.82919959     0.07687164     0.80205927
O       1.36640923     1.79989738     0.09204206     1.11858199    -0.92318501    -0.10666997
O       4.88703164     3.31168994     8.84793099    -1.11858199     0.92318501     0.10666997
O       3.57885339     0.75591692     0.09201305     0.82950761     0.07704262    -0.80211738
O       2.67458742     4.35567030     8.84796000    -0.82950761    -0.07704262     0.80211738
O       4.23792779     0.75589633     4.56202891    -1.11870566     0.92370181    -0.10655632
O       2.01551297     4.35569095     4.37794439     1.11870566    -0.92370181     0.10655632
O       0.96967867     3.10915702     2.41490983    -0.45689934    -1.00465302    -1.37453514
O       5.28376208     2.00243021     6.52506347     0.45689934     1.00465302     1.37453514
O       3.16621353     2.00238254     2.05510528     1.17286339    -1.51405379    -1.72310230
O       3.08722728     3.10920473     6.88486787    -1.17286339     1.51405379     1.72310230
O       0.32057484     0.55336347     2.05507672    -0.45682067    -1.00466639     1.37491515
O       5.93286598     4.55822381     6.88489643     0.45682067     1.00466639    -1.37491515
O       2.43812344     0.55341113     6.52509198    -1.17308785     1.51394246    -1.72354479
O       3.81531737     4.55817609     2.41488127     1.17308785    -1.51394246     1.72354479
