# total energy = -19516.88571933 eV

CRYSTAL
PRIMVEC
        5.17600016     0.00000000     0.00000000
        0.00000000     5.50899976     0.00000000
        0.00000000     0.00000000     9.26300011
PRIMCOORD
23 1
Ti      1.93414798     3.20570001     3.44007298     0.10212323    -0.21286454     2.84451018
Ti      3.43153301     2.29645601     5.84185400     0.04005317     0.70440642    -1.89741673
Ti      4.22623998     1.99608601     1.55555902     3.04532704    -0.12459699    -1.78497463
Ti      0.76338999     3.35062297     7.85198199     0.35678646     1.36891419    -0.41219247
Ti      1.91526202     0.13172100     1.37062797     1.72798328    -0.75866983    -1.34409507
Ti      3.16706297     5.33872100     7.85973602    -0.25328538    -0.80445528     1.28474602
Ti      0.80746299     0.57461601     5.93201802    -1.40215909     0.06056544    -2.69269651
Ti      4.61497099     4.83311299     3.26586402    -0.51696239     0.19784209     3.72310274
O       1.85242402     1.85853803     4.83803698    -0.76544623     0.19281584    -1.41961277
O       3.55927000     3.67590199     4.52572800    -0.03500070    -0.35016227    -0.63183521
O       5.11330800     2.53903002     9.16393500    -0.23186345     0.03396583     0.86528504
O       3.51064300     0.64902299     0.29795801    -0.44179950     0.26237680     0.02134993
O       1.53767902     4.77934302     9.02810298     0.62160144     0.00860883     0.35966327
O       4.20213299     0.83336199     4.86444600     1.09963963    -0.62629525    -0.15400399
O       1.00602898     4.75008301     4.43236399    -0.08957881    -0.01101101     0.38955853
O       0.30925499     3.35512701     2.49514101    -0.77873730    -1.22265462    -1.03782232
O       0.06827201     2.38716101     6.39049201    -0.45709989    -0.04283691     1.27550753
O       2.64630700     1.72931903     2.34140502    -1.42388183     0.27406093     0.38992825
O       2.50917701     3.81238198     6.94017302    -0.27109516    -0.18810866     0.45982732
O       0.27314701     0.53105398     2.06173198    -1.38216747     1.57371318    -0.14686969
O       4.88920101     4.91818500     7.30047801     0.70356876     0.30154243    -0.46484354
O       2.29562499     1.25192600     7.10766201    -0.10086339    -0.57068150     0.70361555
O       2.93791901     4.34864502     2.22381903     0.45285808    -0.06647487    -0.33073166
