# total energy = -19958.61386144 eV

CRYSTAL
PRIMVEC
        5.75026082     0.00000000     0.00000000
        0.00002674     5.00728634     0.00000000
        0.00000000     0.00000000     9.45059937
PRIMCOORD
24 1
Ti      2.08420881     2.96731315     3.50610508    -0.05517101     0.48675423    -0.91760289
Ti      3.66607880     2.03997298     5.94449466     0.05517101    -0.48675423     0.91760289
Ti      4.95923959     2.03997460     1.21915703    -0.05344066    -0.48696609     0.92316650
Ti      0.79104802     2.96731169     8.23144282     0.05344066     0.48696609    -0.92316650
Ti      2.08419565     0.46367008     1.21919492    -0.05520675     0.48356786     0.92236586
Ti      3.66609196     4.54361621     8.23140493     0.05520675    -0.48356786    -0.92236586
Ti      0.79103487     0.46366825     5.94445677     0.05332933     0.48365682     0.91869201
Ti      4.95925274     4.54361799     3.50614298    -0.05332933    -0.48365682    -0.91869201
O       1.82000329     1.76315057     4.82256867     0.63337864    -0.18950400     0.47367734
O       3.93028433     3.24413556     4.62803108    -0.63337864     0.18950400    -0.47367734
O       1.05517956     1.76317080     0.09729923    -0.63315136    -0.19018663     0.47370511
O       4.69510811     3.24411538     9.35330025     0.63315136     0.19018663    -0.47370511
O       3.93027117     0.74049234     0.09726855    -0.63357019     0.18967472     0.47382646
O       1.82001644     4.26679380     9.35333093     0.63357019    -0.18967472    -0.47382646
O       4.69509490     0.74047215     4.82259934     0.63317887     0.18971200     0.47355444
O       1.05519261     4.26681403     4.62800040    -0.63317887    -0.18971200    -0.47355444
O       0.20893644     3.04571543     2.55284276     0.19280941    -0.19589576     0.32603143
O       5.54135117     1.96157071     6.89775699    -0.19280941     0.19589576    -0.32603143
O       3.08407260     1.96152417     2.17248718     0.19325473     0.19609554    -0.32650143
O       2.66621501     3.04576196     7.27811241    -0.19325473    -0.19609554     0.32650143
O       0.20892323     0.54207220     2.17245698     0.19270348    -0.19594744    -0.32642172
O       5.54136438     4.46521393     7.27814260    -0.19270348     0.19594744     0.32642172
O       2.66620180     0.54211874     6.89778714    -0.19345270    -0.19593407    -0.32611962
O       3.08408581     4.46516739     2.55281256     0.19345270     0.19593407     0.32611962
