# total energy = -19940.05550113 eV

CRYSTAL
PRIMVEC
        5.93400000     0.00000000     0.00000000
        0.00000000     9.29699974     0.00000000
        0.00000000     0.00000000     4.64899994
PRIMCOORD
24 1
Ti      4.54083500     6.25137602     2.35947499    -2.86440410     5.55429503    -4.07406617
Ti      4.42097699     2.64081700     2.36011699    -2.52246885    -1.03321670    -1.60431189
Ti      1.51432098     5.53147201     2.40370701     0.51627719     7.21714916    -0.28118006
Ti      1.40037599     2.67858501     2.15013998     3.17973177    -2.12358930    -0.89100482
Ti      2.88328501     4.48626900     0.05540100     3.77604769     5.11588938    -0.67547353
Ti      2.96166103     0.87512402     4.61791798    -1.53249247    -4.77807150    -2.78577383
Ti      0.09702301     4.25435701     4.58697100    -6.75726476     6.99807309     1.00659652
Ti      5.88555901     0.93264299     4.29747999    -0.06747091    -9.39957201     2.07413232
O       4.63803502     5.48388400     0.68387502    -0.64742870    -2.10359768     1.17113561
O       4.51507899     1.33874600     0.93909901    -1.12701006     0.11176615    -0.54038618
O       1.36548601     5.51869201     0.59796500    -0.21842841    -1.58545901     0.26714929
O       1.38664802     1.29409402     0.87627202     0.90975871     3.04166091     2.33512664
O       4.75208097     8.45426502     3.83884302    -0.32499039     4.43003424     1.03151977
O       4.44578202     3.48380302     3.93426701    -0.94897087    -0.56334254     0.79661470
O       1.43466398     9.18255601     3.99586499     1.36943561    -0.78359000    -1.18505325
O       1.43420799     3.50075802     3.94781897     5.01898035    -2.94818430    -2.98169479
O       3.01968002     6.02950798     3.68425002    -0.92019045    -1.91462230    -0.82301017
O       2.86475698     1.78611001     2.88957401     0.77417410    -2.28162067     1.98480959
O       5.83296699     5.72050402     3.43509400     3.09666814    -3.80523769     2.09140422
O       0.01209101     1.73021302     2.77207301    -0.41160317    -1.48261767     0.67467855
O       2.95962999     7.04748498     1.52958700    -0.55226699    -0.93371086     1.70589956
O       2.90381200     3.92645598     1.81534398    -0.23036913    -0.07685056     1.10407427
O       0.12945702     7.11268899     1.91388002     1.04227727     0.69939226    -0.67057095
O       5.86016099     3.48747700     1.54975802    -0.55799156     2.64502259     0.26938435
