# total energy = -19910.63611670 eV

CRYSTAL
PRIMVEC
        4.45114715     0.00000000     0.00000000
        0.00002440     4.73736662     0.00000000
        0.00000000     0.00000000     7.96657466
PRIMCOORD
24 1
Ti      1.61334121     2.80735908     2.95554243    -0.19206791     1.70338579    -2.49476546
Ti      2.83783034     1.93000759     5.01103245     0.19206791    -1.70338579     2.49476546
Ti      3.83883687     1.93000922     1.02771317    -0.18596539    -1.70292607     2.49239799
Ti      0.61233468     2.80735763     6.93886180     0.18596539     1.70292607    -2.49239799
Ti      1.61332911     0.43867586     1.02774512    -0.19127909     1.70365601     2.49164517
Ti      2.83784244     4.29869094     6.93882985     0.19127909    -1.70365601    -2.49164517
Ti      0.61232258     0.43867409     5.01100050     0.18647370     1.70316339     2.49558719
Ti      3.83884897     4.29869271     2.95557438    -0.18647370    -1.70316339    -2.49558719
O       1.40882477     1.66810736     4.06528215    -4.31842647    -3.65403748    -0.69566441
O       3.04234678     3.06925934     3.90129273     4.31842647     3.65403748     0.69566441
O       0.81679202     1.66812644     0.08202035     4.31654545    -3.65482501    -0.69319744
O       3.63437958     3.06924027     7.88455430    -4.31654545     3.65482501     0.69319744
O       3.04233468     0.70057599     0.08199450     4.31743171     3.65393515    -0.69490079
O       1.40883687     4.03679067     7.88458015    -4.31743171    -3.65393515     0.69490079
O       3.63436747     0.70055691     4.06530800    -4.31763226     3.65506438    -0.69396800
O       0.81680403     4.03680980     3.90126688     4.31763226    -3.65506438     0.69396800
O       0.16173529     2.88153493     2.15197061    -1.55905531     0.89979131    -1.07056173
O       4.28943626     1.85583173     5.81460427     1.55905531    -0.89979131     1.07056173
O       2.38731244     1.85578758     1.83134216    -1.55935511    -0.90085266     1.07077308
O       2.06385911     2.88157909     6.13523259     1.55935511     0.90085266    -1.07077308
O       0.16172319     0.51285158     1.83131672    -1.55904015     0.90001371     1.07004957
O       4.28944836     4.22451508     6.13525803     1.55904015    -0.90001371    -1.07004957
O       2.06384701     0.51289573     5.81462967     1.55911291     0.90045594     1.07129630
O       2.38732454     4.22447093     2.15194517    -1.55911291    -0.90045594    -1.07129630
