# total energy = -19516.99774089 eV

CRYSTAL
PRIMVEC
        7.60600008     0.00000000     0.00000000
        0.00000000     7.60600008     0.00000000
       -1.89786986    -1.89786986     4.85670466
PRIMCOORD
23 1
Ti      3.75148400     6.50672298     1.28115098     0.71963327     1.88431773     0.09775981
Ti      3.78522699     2.89293598     1.05468402     1.36949346    -3.27560875     1.31562652
Ti     -0.05805498     6.51422502     1.24760098    -0.15279763     4.03447245     1.17706329
Ti      0.07077402     2.96316998     1.04294698    -0.52907203    -2.44904532     1.00948978
Ti      5.62737322     3.00112622     3.66170083    -1.24020935    -1.16098695    -2.39036887
Ti      5.65841724    -0.91945076     3.69043584     0.64016970    -0.22121497     0.88400653
Ti      1.87128522     2.92486024     3.65877680     2.39449729    -0.93664063    -1.08008176
Ti      1.84376821    -1.00032275     3.64071683    -0.14564893     0.39724407     1.46584585
O       3.98104601     4.64943202     0.75526199    -0.59311361     2.47075572     0.34306911
O       3.52027799     0.96027499     0.76260300     0.45936914    -0.78883660    -0.05577033
O      -0.16929301     4.82814200     0.77091097     0.14380211    -2.41701656    -0.16831887
O       0.04081502     0.86361600     0.84795601     0.20565002     0.59910788    -0.54697103
O       5.99464022     4.73094421     4.06732281    -0.52453712    -0.15856076    -0.12787669
O       5.66037520     0.92739525     4.02971783     1.12326294     1.07827761    -0.02787025
O       2.09212321     4.69745025     4.18451080    -0.92012977     0.63069775    -0.56735809
O       2.18479522     0.91881221     4.00134081    -1.74151372     0.20865358    -0.02813559
O       3.80288225     2.89455320     3.45296480     0.68571372     0.35245929    -1.78085495
O       3.87876325    -0.80995780     3.23888582    -2.02932697    -1.29575420    -0.14135005
O      -0.04826075    -1.13628077     3.25647980     0.84932028     0.95109898    -0.37395347
O       5.62213500     6.73010003     1.65468403     0.69595675    -0.53658814    -0.42124841
O       5.88760301     2.80145600     1.63119401    -0.45926296     0.40662449     1.28052401
O       1.82804900     6.31536201     1.75541598     1.28152699     0.16257374    -0.80417066
O       2.02673199     3.08300698     1.49026701    -2.23278332     0.06397010     0.94094466
