# total energy = -19950.73501395 eV

CRYSTAL
PRIMVEC
        5.67453019     0.00000000     0.00000000
        0.60246651     6.00929121     0.00000000
        0.00000000     0.00000000    10.16890967
PRIMCOORD
24 1
Ti      2.41376543     3.56110044     3.77259305     0.13390542    -1.16870129     0.71072800
Ti      3.86323146     2.44819082     6.39631697    -0.13390542     1.16870129    -0.71072800
Ti      5.13936152     2.44819286     1.31182134    -0.17196624     0.07663973    -0.23615411
Ti      1.13763538     3.56109869     8.85708885     0.17196624    -0.07663973     0.23615411
Ti      2.11253229     0.55645489     1.31186213     0.13390542    -1.16870129    -0.71072800
Ti      4.16446461     5.45283660     8.85704806    -0.13390542     1.16870129     0.71072800
Ti      0.83640216     0.55645268     6.39627623     0.17196624    -0.07663973    -0.23615411
Ti      5.44059467     5.45283876     3.77263384    -0.17196624     0.07663973     0.23615411
O       2.00816340     2.11597361     5.18911690     1.23824734     1.31505316    -0.27106662
O       4.26883348     3.89331771     4.97979312    -1.23824734    -1.31505316     0.27106662
O       1.25341481     2.11599791     0.10469463    -0.81116484     0.53539104     0.38500613
O       5.02358214     3.89329346    10.06421515     0.81116484    -0.53539104    -0.38500613
O       3.96760033     0.88867193     0.10466166    -1.23824734    -1.31505316    -0.27106662
O       2.30939655     5.12061939    10.06424813     1.23824734     1.31505316     0.27106662
O       4.72234899     0.88864768     5.18914993     0.81116484    -0.53539104     0.38500613
O       1.55464784     5.12064364     4.97976015    -0.81116484     0.53539104    -0.38500613
O       0.57262307     3.65519170     2.74687626     0.27007340     0.32708712     0.59170105
O       5.70437376     2.35409962     7.42203376    -0.27007340    -0.32708712    -0.59170105
O       3.27945189     2.35404366     2.33761108     0.54174732     0.65919870     0.02257687
O       2.99754500     3.65524760     7.83129882    -0.54174732    -0.65919870    -0.02257687
O       0.27138992     0.65054591     2.33757857     0.27007340     0.32708712    -0.59170105
O       6.00560690     5.35874535     7.83133127    -0.27007340    -0.32708712     0.59170105
O       2.69631185     0.65060188     7.42206620    -0.54174732    -0.65919870     0.02257687
O       3.58068504     5.35868944     2.74684381     0.54174732     0.65919870    -0.02257687
