# total energy = -4983.00549159 eV

CRYSTAL
PRIMVEC
        4.70069141     0.00000000     0.00000000
       -0.00000763     3.13379391     0.00000000
       -2.35037340    -1.56694477     5.20757612
PRIMCOORD
6 1
Ti     -0.00020203     2.35045927     1.30189376    -0.00438810    -0.01003708    10.76005787
Ti      2.35051245    -0.78361047     3.90568166     0.00438810     0.01003708   -10.76005787
O       0.00004947     0.78343997     0.84827147     0.00364557     0.00411120    -4.65326136
O       2.35026085     0.78340879     4.35930400    -0.00364557    -0.00411120     4.65326136
O      -0.00002014    -0.78344285     3.45205942    -0.00257599    -0.00017843    -1.77753489
O       2.35033041     2.35029155     1.75551610     0.00257599     0.00017843     1.77753489
