# total energy = -19904.43968997 eV

CRYSTAL
PRIMVEC
        6.67672073     0.00000000     0.00000000
        0.00003659     7.10604993     0.00000000
        0.00000000     0.00000000    11.94986198
PRIMCOORD
24 1
Ti      2.42001182     4.21103861     4.43331365     0.05561761    -0.91669735     0.61833151
Ti      4.25674551     2.89501138     7.51654867    -0.05561761     0.91669735    -0.61833151
Ti      5.75825530     2.89501382     1.54156976     0.05507639     0.91686807    -0.61855983
Ti      0.91850203     4.21103644    10.40829270    -0.05507639    -0.91686807     0.61855983
Ti      2.41999366     0.65801379     1.54161768     0.05561761    -0.91669735    -0.61833151
Ti      4.25676367     6.44803641    10.40824478    -0.05561761     0.91669735     0.61833151
Ti      0.91848387     0.65801114     7.51650075    -0.05507639    -0.91686807    -0.61855983
Ti      5.75827346     6.44803906     4.43336157     0.05507639     0.91686807     0.61855983
O       2.11323715     2.50216105     6.09792323     1.39888890     1.30106944    -0.01073205
O       4.56352017     4.60388902     5.85193910    -1.39888890    -1.30106944     0.01073205
O       1.22518802     2.50218967     0.12303053    -1.39902722     1.30130393    -0.01139128
O       5.45156937     4.60386040    11.82683145     1.39902722    -1.30130393     0.01139128
O       4.56350201     1.05086399     0.12299176    -1.39888890    -1.30106944    -0.01073205
O       2.11325531     6.05518601    11.82687023     1.39888890     1.30106944     0.01073205
O       5.45155121     1.05083537     6.09796200     1.39902722    -1.30130393    -0.01139128
O       1.22520605     6.05521470     5.85190033    -1.39902722     1.30130393     0.01139128
O       0.24260294     4.32230240     3.22795592     0.49162596    -0.28394580     0.32543545
O       6.43415439     2.78374759     8.72190641    -0.49162596     0.28394580    -0.32543545
O       3.58096866     2.78368137     2.74701323     0.49170309     0.28398951    -0.32557686
O       3.09578867     4.32236863     9.20284889    -0.49170309    -0.28398951     0.32557686
O       0.24258478     0.76927737     2.74697507     0.49162596    -0.28394580    -0.32543545
O       6.43417255     6.33677263     9.20288705    -0.49162596     0.28394580     0.32543545
O       3.09577051     0.76934360     8.72194450    -0.49170309    -0.28398951    -0.32557686
O       3.58098682     6.33670640     3.22791776     0.49170309     0.28398951     0.32557686
