# total energy = -4980.98469345 eV

CRYSTAL
PRIMVEC
        3.73818387     0.00000000     0.00000000
        0.00000000     2.51021727     0.00000000
        0.00000000    -0.00008045     4.98059019
PRIMCOORD
6 1
Ti      1.86909194     1.25506836     2.49029500     0.00000000     0.00000000     0.00000000
Ti      0.00000000     0.00000000     0.00000000     0.00000000     0.00000000     0.00000000
O       1.86909194     0.48918869     0.97064365     0.00000000    -2.79894971    -2.91081227
O       1.86909194     2.02094808     4.00994634     0.00000000     2.79894971     2.91081227
O       0.00000000     0.76584777     3.46093960     0.00000000     2.79916388    -2.91296660
O       0.00000000     1.74428895     1.51965035     0.00000000    -2.79916388     2.91296660
