# total energy = -19940.15061721 eV

CRYSTAL
PRIMVEC
        5.17252355     0.00000000     0.00000000
        2.35796078     4.97458209     0.00000000
        0.00000000     0.00000000     9.51349321
PRIMCOORD
24 1
Ti      3.27211632     2.94793271     3.52943810     3.40091203    -4.18132980     1.21492871
Ti      4.25836783     2.02664931     5.98405516    -3.40091203     4.18132980    -1.21492871
Ti      5.42160354     2.02665099     1.22727053    -7.20951298     1.17207741     1.76211880
Ti      2.10888071     2.94793122     8.28622289     7.20951298    -1.17207741    -1.76211880
Ti      2.09313606     0.46064175     1.22730866     3.40100896    -4.18134497    -1.21407665
Ti      5.43734813     4.51394043     8.28618476    -3.40100896     4.18134497     1.21407665
Ti      0.92990032     0.46063991     5.98401703     7.20905018    -1.17259625     1.75773353
Ti      6.60058392     4.51394225     3.52947628    -7.20905018     1.17259625    -1.75773353
O       2.46741438     1.75163490     4.85466277    -0.11732334     1.00963530    -1.28424876
O       5.06306977     3.22294712     4.65883054     0.11732334    -1.00963530     1.28424876
O       1.77944322     1.75165499     0.09794676     1.54683743    -0.56430156    -0.59706823
O       5.75104100     3.22292712     9.41554629    -1.54683743     0.56430156     0.59706823
O       3.88408948     0.73565606     0.09791585     0.11748815    -1.00952063    -1.28437835
O       3.64639468     4.23892601     9.41557715    -0.11748815     1.00952063     1.28437835
O       4.57206070     0.73563600     4.85469362    -1.54650576     0.56409124    -0.59650747
O       2.95842341     4.23894608     4.65879964     1.54650576    -0.56409124     0.59650747
O       1.62217512     3.02582285     2.56983186     0.36299439    -1.13322211    -0.93862064
O       5.90830899     1.94875918     6.94366145    -0.36299439     1.13322211     0.93862064
O       3.69789509     1.94871289     2.18694503     2.12037851    -1.17620351    -2.25035888
O       3.83258907     3.02586913     7.32654808    -2.12037851     1.17620351     2.25035888
O       0.44319482     0.53853173     2.18691464     0.36286841    -1.13340440     0.93856947
O       7.08728929     4.43605030     7.32657847    -0.36286841     1.13340440    -0.93856947
O       2.65360877     0.53857802     6.94369173    -2.12015739     1.17636215    -2.25065944
O       4.87687539     4.43600400     2.56980147     2.12015739    -1.17636215     2.25065944
