# total energy = -19072.98370899 eV

CRYSTAL
PRIMVEC
        5.93400000     0.00000000     0.00000000
        0.00000000     9.29699974     0.00000000
        0.00000000     0.00000000     4.64899994
PRIMCOORD
22 1
Ti      4.46358301     6.81101303     2.64350601    -0.87128753     0.79301901    -0.28876405
Ti      4.37074198     2.50336098     2.17714300     0.60206285    -3.07104065    -1.62910787
Ti      1.55737801     7.34645499     2.39372900    -0.26308026    -1.01197372     0.32533492
Ti      1.47161500     2.25137800     2.17990298     0.74861527     0.61446689     0.58695942
Ti      3.02296002     4.38402603     4.43158599    -0.48956728     1.15264757     0.02894215
Ti      2.96667900     9.28729903     0.07906501     1.68677671     1.03587574     0.32671431
Ti      5.80036698     4.63119800     4.52843199     0.27514156    -0.29784107     0.43104406
Ti      0.08434699     9.09104200     0.28239602    -1.38993220     0.87717254    -0.08039380
O       4.28342800     5.30133902     0.82623900     0.11293395     1.68796533     1.07749934
O       4.59214498     1.06396002     0.66854301    -0.03857350    -0.39507560     0.35885440
O       1.42747098     1.20562500     0.57349002     0.01017514    -1.02952691     1.14848521
O       4.63085599     8.29762602     3.74042901    -1.34208652     0.90223154     0.84110457
O       4.46822098     3.73755399     3.51584201     0.63246873     0.49967043     0.98475319
O       1.56525201     8.61705799     3.64776902    -0.85693049    -0.00635294    -0.20612465
O       1.51183702     3.51114000     3.89419601    -2.13277920     0.44360391    -1.04505149
O       2.66367798     5.97283399     3.38630100     0.89648693     0.78806038    -1.10990734
O       3.01735598     1.49234102     3.05095498    -0.30336226    -0.99245442     0.41681531
O       0.14123201     6.32305001     3.53901002     0.25825841    -2.09957236     0.00050908
O       3.15446999     8.02352300     1.48253700    -0.34099037    -0.96228379     0.11569583
O       2.92174497     3.07148801     1.30225700    -0.94107810     2.31828410    -1.17858153
O       5.77391499     7.76077602     1.53083702     1.38116782    -0.36490112    -0.64263590
O       5.81965300     3.56319300     1.51369602     2.36558008    -0.88197459    -0.46214568
