# total energy = -4977.81579440 eV

CRYSTAL
PRIMVEC
        3.73818397     0.00000000     0.00000000
        0.00000000     5.85717385     0.00000000
        0.00000000    -0.00007601     5.85717385
PRIMCOORD
6 1
Ti      1.86909192     2.92854885     2.92858686     0.00000000     0.00000000     0.00000000
Ti      0.00000000     0.00000000     0.00000000     0.00000000     0.00000000     0.00000000
O       1.86909192     1.14146209     1.14147690     0.00000000    -0.96608440    -0.96608440
O       1.86909192     4.71563562     4.71569682     0.00000000     0.96608440     0.96608440
O       0.00000000     1.78705595     4.07006494     0.00000000     0.96656108    -0.96656108
O       0.00000000     4.07004175     1.78710877     0.00000000    -0.96656108     0.96656108
