# total energy = -19073.69145277 eV

CRYSTAL
PRIMVEC
        5.17600016     0.00000000     0.00000000
        0.00000000     5.50899976     0.00000000
        0.00000000     0.00000000     9.26300011
PRIMCOORD
22 1
Ti      1.89412202     3.39611502     3.20062202     0.57048327    -0.14200594     0.77790246
Ti      3.44891701     2.21713700     5.83436101    -0.28552188     0.47512898    -0.55984018
Ti      4.42818999     2.32444901     1.25413998    -0.40765499    -0.45485763    -0.68818790
Ti      0.88649202     3.05636402     8.01694802    -1.52011054     2.44973515    -1.14180445
Ti      1.82095803     0.42661503     1.19932499    -0.00825042     1.23671728    -0.62896689
Ti      3.24381199     4.99323700     8.09852101     2.11059623    -0.58868951     0.85830526
Ti      0.84455599     0.18874800     6.27222602     0.57389846    -0.97122172    -1.71522084
Ti      4.39469302     5.08319200     3.49207899     0.90567708    -0.00368902     0.55244774
O       3.31966902     3.55556703     4.50333099     0.36228734    -1.12594691     0.38729415
O       1.09836199     2.08444099     0.22072401    -1.08458402    -1.34486229     0.52111524
O       4.31007901     3.72688297     9.12584699     0.24997611    -1.14310055    -0.43527841
O       3.42167402     0.88178700     0.13738299     0.62585791     0.00544997    -0.40313576
O       1.62566098     4.75945898     8.80382898    -2.53523207     0.16792292     2.94503573
O       3.64211100     0.78636300     4.53252502     0.60972140     1.12199153     1.12717333
O       1.09286601     4.91854400     4.60165001    -2.10274228     0.49595519     0.15043607
O       0.10139999     3.45971900     2.65060101    -0.05715976    -0.79744491    -0.79281050
O       0.08313301     2.08545198     6.37229402     0.34886129    -1.14171987     0.82029894
O       2.65136699     1.93957999     2.15687900     0.21553514     1.40238920     1.18778017
O       2.17367303     3.84494898     6.81936799     0.57350946    -2.41391709    -0.59584489
O       5.15358897     0.71507600     2.07977698     1.26441167    -0.65938793     0.39415772
O       2.51037999     0.76028398     6.90601299     0.30895184     2.95384073    -1.18499180
O       2.82237798     4.74117400     2.39575401    -0.71851201     0.47771320    -1.57586468
