# total energy = -4988.26529051 eV

CRYSTAL
PRIMVEC
        3.63418127     0.00000000     0.00000000
        1.06625584     3.47424409     0.00000000
       -2.35025135    -1.73714629     4.69228829
PRIMCOORD
6 1
Ti      0.79958067     2.60581626     1.17307180     0.00083818    -0.00083818     0.00000000
Ti      1.55060486    -0.86871862     3.51921580    -0.00083818     0.00083818     0.00000000
O       0.26660197     0.86855620     0.76433529     0.00023089     0.00071322    -0.36858629
O       2.08358339     0.86854135     3.92795230    -0.00023089    -0.00071322     0.36858629
O      -0.26657398    -0.86853552     3.11047929     0.00071322     0.00023089    -0.36858629
O       2.61675933     2.60563297     1.58180836    -0.00071322    -0.00023089     0.36858629
