# total energy = -19070.35577712 eV

CRYSTAL
PRIMVEC
        5.93400000     0.00000000     0.00000000
        0.00000000     9.29699974     0.00000000
        0.00000000     0.00000000     4.64899994
PRIMCOORD
22 1
Ti      4.55194302     7.04610198     2.33328098    -3.44754954    -0.17296229    -0.50675716
Ti      4.38681098     2.13833198     2.36367502     0.18069103     2.11426854    -1.04396623
Ti      1.41219702     7.16266602     2.48812899     3.26372871     1.14670832     0.93091838
Ti      1.53260903     2.42085399     2.22181000    -1.44157308     0.11197904    -0.73530981
Ti      3.05509902     4.68211501     4.55350298     0.92023776     0.65353276    -0.65476072
Ti      3.09613200     0.33188801     0.15696900    -2.81544719    -2.42225390    -0.15622466
Ti      0.00827099     4.68941501     4.43213099    -0.97530875    -2.14362232     1.98396241
Ti      0.02150402     9.08553501     0.06864302     1.60154847     0.10130279    -2.70894512
O       4.57566497     5.68960499     0.95165601    -1.66180743    -1.13129275    -0.55549759
O       4.65155899     0.50377298     1.03399398    -1.07410317     4.50689483     3.03786621
O       1.36241297     0.66939499     1.01788699    -0.02784994     2.88867224     0.10054791
O       4.40030003     8.29815599     3.88675001    -0.53031465     1.41469836    -1.32465315
O       4.36923399     3.69657800     3.49495501    -0.13900829    -0.60023917    -0.06538961
O       1.53280498     8.23563100     3.99238501     0.47263373    -0.53891756    -2.44336935
O       1.35410198     3.62072700     3.74147700     1.56437210     0.23183569    -1.48689316
O       3.02173302     5.99851798     3.13919602    -1.52828717    -0.54564486     0.62993362
O       2.67138402     1.31550602     3.19678898     1.63295527     0.03017628     0.69730349
O       5.74001003     6.26536000     3.50238598     1.87651288     0.13488166    -1.69705779
O       2.84328302     8.15046500     1.46847698    -0.05911894    -2.45763563     1.55442193
O       3.02592299     2.64512101     1.10629198     0.18305978     1.33896366    -0.85456893
O       5.91986197     7.89512401     1.36917798     1.24056596    -3.01744033     2.77941883
O       5.65642198     3.31759199     1.06274598     0.76406272    -1.64390612     2.51902100
