# total energy = -19913.07136033 eV

CRYSTAL
PRIMVEC
        6.49760002     0.00000000     0.00000000
        0.34559021     6.90677064     0.00000000
        0.00000000     0.00000000    11.63291168
PRIMCOORD
24 1
Ti      2.55986384     4.09294572     4.31572726    -0.02878685    -1.15082466     0.67361899
Ti      4.28332612     2.81382467     7.31718455     0.02878685     1.15082466    -0.67361899
Ti      5.74455405     2.81382703     1.50068216     0.13210153     0.66565294    -0.59702349
Ti      1.09863599     4.09294362    10.13222979    -0.13210153    -0.66565294     0.59702349
Ti      2.38706887     0.63956066     1.50072878    -0.02878685    -1.15082466    -0.67361899
Ti      4.45612109     6.26720992    10.13218317     0.02878685     1.15082466     0.67361899
Ti      0.92584101     0.63955810     7.31713787    -0.13210153    -0.66565294    -0.59702349
Ti      5.91734902     6.26721248     4.31577395     0.13210153     0.66565294     0.59702349
O       2.17821952     2.43199125     5.93618579     1.51597826     1.48786710    -0.14472488
O       4.66497044     4.47477913     5.69672602    -1.51597826    -1.48786710     0.14472488
O       1.31399611     2.43201912     0.11976734    -1.30546629     1.11964308     0.15965091
O       5.52919392     4.47475132    11.51314414     1.30546629    -1.11964308    -0.15965091
O       4.49217547     1.02139387     0.11972962    -1.51597826    -1.48786710    -0.14472488
O       2.35101449     5.88537651    11.51318186     1.51597826     1.48786710     0.14472488
O       5.35639895     1.02136607     5.93622358     1.30546629    -1.11964308     0.15965091
O       1.48679095     5.88540445     5.69668824    -1.30546629     1.11964308    -0.15965091
O       0.44628038     4.20108928     3.14233971     0.48858743     0.06624527     0.59766806
O       6.39690965     2.70568110     8.49057217    -0.48858743    -0.06624527    -0.59766806
O       3.62026506     2.70561675     2.67415318     0.51656207     0.61893495    -0.07510272
O       3.22292497     4.20115363     8.95875843    -0.51656207    -0.61893495     0.07510272
O       0.27348541     0.74770402     2.67411606     0.48858743     0.06624527    -0.59766806
O       6.56970462     6.15906636     8.95879555    -0.48858743    -0.06624527     0.59766806
O       3.05013000     0.74776837     8.49060922    -0.51656207    -0.61893495    -0.07510272
O       3.79306003     6.15900201     3.14230252     0.51656207     0.61893495     0.07510272
