# total energy = -19959.63126520 eV

CRYSTAL
PRIMVEC
        7.60600008     0.00000000     0.00000000
        0.00000000     7.60600008     0.00000000
       -1.89786986    -1.89786986     4.85670466
PRIMCOORD
24 1
Ti      3.74851500     6.73252202     1.29166298     2.01681880     0.19059775    -0.41107712
Ti      3.86390702     2.93447100     1.18018999    -1.08468172    -0.11056905     0.22839015
Ti      0.12729502     6.49427398     1.17120001    -2.23474482     2.21675095     0.51039811
Ti      0.00627202     2.82274702     1.26144199     2.06367666    -1.44051893    -2.09770471
Ti      5.74417423     2.63810523     3.58113983    -1.16420983     0.49541422     0.48482719
Ti      5.61453422    -1.06883279     3.62124983     1.15935404    -0.49538954     0.39221602
Ti      1.90555124     2.96697021     3.59290784     1.76134182     0.37264477     0.01733618
Ti      1.82642924    -0.81090180     3.63967483    -0.72885788    -0.19571553     1.66453255
O       3.69772700     4.89710099     0.91314101    -0.10862401    -0.63435541    -1.09767839
O       3.66942099     1.11603000     0.98950399     0.85750307    -1.07430809    -1.40979501
O       0.06465101     4.68377202     0.79466299     0.62236943    -0.75219759    -0.20477919
O      -0.01741401     0.82252301     0.75781998     0.47220410    -0.53259496    -0.25594596
O       5.57864023     4.53580221     4.02790582     1.12305956     1.01247946    -0.02310446
O       5.52067923     0.81012221     4.14375781     1.07869902     2.07532968    -0.96474871
O       1.85248720     4.90367824     3.96426882    -0.07769285    -0.46662146     1.14875492
O       1.89692020     1.05938423     3.92635883     0.36165999     0.14400446     2.21213273
O       3.81451923     2.90523824     3.34406382     0.96169295    -0.37875989    -1.39032532
O       3.85468420    -0.76304179     3.23854482    -1.57278501    -0.60966021    -0.13137802
O       0.14448222     2.73311022     3.11679182    -2.69087026     0.15170363     1.62940355
O      -0.05465575    -0.78255176     3.12823682     0.23723681    -0.65546803     0.84828798
O       5.68607199     6.47510200     1.65962802    -0.27965077     0.34406438    -0.52251469
O       5.85621698     2.71056600     1.49236499    -3.26826337     0.40703535     1.80814594
O       1.89908501     6.87227000     1.84734698     0.24096439    -0.79179774    -2.91166871
O       1.97888002     2.84422098     1.58562200     0.25380011     0.72793151     0.47629549
