# total energy = -19960.79501239 eV

CRYSTAL
PRIMVEC
        7.60600008     0.00000000     0.00000000
        0.00000000     7.60600008     0.00000000
       -1.89786986    -1.89786986     4.85670466
PRIMCOORD
24 1
Ti      3.80108098     6.49125497     1.23085798    -1.11490248     1.47289119     0.02709635
Ti      3.83151502     2.87310702     1.24212501    -1.42377410    -1.30591289    -0.89733899
Ti     -0.00338901     6.74257998     1.19629799     1.12173750     0.13719052     0.80836516
Ti     -0.02279299     2.94179502     1.22114599     0.87872754    -0.48395764    -0.08204727
Ti      5.71248223     2.88092821     3.65664380     0.61742777    -0.48728311    -0.26280464
Ti      5.75727221    -0.97250777     3.60074183    -0.42437256     0.78144544     0.02416401
Ti      1.92762222     2.82902524     3.63908284    -0.96044057    -0.42017703    -0.50028955
Ti      1.91850423    -1.05736975     3.68030082     0.11314786     0.69500158     0.51084805
O       3.53871400     4.64636501     0.74824901     0.86063339     1.04137121     0.23670870
O       3.61923298     0.78764599     0.86022800     1.07387486     1.72482674    -0.45520267
O       0.06454401     4.85603499     0.74111401    -0.40587835     0.21580871    -0.33328811
O      -0.02480502     1.03515701     0.77385002    -0.06778665    -0.99007897    -0.42340300
O       5.91128724     4.84016020     3.86450780    -0.23185214    -0.96523208     1.39906013
O       5.72802622     1.00080520     4.00973583    -0.32731698     0.22930726     0.02931856
O       1.73625823     4.68488324     4.08141781     0.44000359    -0.52627082    -0.03023027
O       1.75292520     0.87471422     4.15365681     1.21735275    -0.13655365    -0.21969648
O       3.82724620     3.09269521     3.28625279    -0.05291667    -1.01495132    -0.05302954
O       3.79037123    -1.09826579     3.22543980     0.70093877    -0.01163990     0.63033600
O       0.06768521     2.60973021     3.11413483    -2.17958178     0.73987198     0.50093361
O       0.08116923    -1.01164678     3.15748280    -1.46275281     0.57859690    -0.86457078
O       5.65216999     6.64101102     1.59808799     1.71846197     0.09924256    -0.04994524
O       5.64358700     3.03304698     1.56264899     0.78376407    -0.26710866     0.42743038
O       1.98111299     6.71291701     1.66251199    -2.13493276    -0.39430247     0.04556485
O       1.81671498     3.05985801     1.70854998     1.26043828    -0.71208528    -0.46797977
