# total energy = -19514.71002127 eV

CRYSTAL
PRIMVEC
        5.93400000     0.00000000     0.00000000
        0.00000000     9.29699974     0.00000000
        0.00000000     0.00000000     4.64899994
PRIMCOORD
23 1
Ti      4.58685898     7.00105799     2.19052198    -2.68713753     1.79741981    -0.53255614
Ti      4.53403000     2.19360200     2.20701199     1.81818224     1.16079617     0.88777345
Ti      1.35369700     6.86765399     2.51394098     2.18806000     1.27915001    -1.62880063
Ti      1.58649001     2.40371802     2.33399802    -2.21622644     1.40910698    -0.31861096
Ti      2.79155001     4.52506700     0.15197902     2.06384327    -1.89157081    -1.06395682
Ti      2.95017698     0.32215099     4.55602800     2.39691798    -1.83020524    -1.08529493
Ti      5.84887502     4.70604398     0.11692298     0.13466235    -2.57230636    -2.11020516
Ti      0.07152598     0.03975598     4.46669298    -1.73832426    -0.20812111    -0.00418190
O       4.41469698     5.38192001     0.80734298    -2.28958210     3.38673856     2.20098082
O       4.49234199     0.91314202     0.75995002     0.45888552     0.61415990     1.71326063
O       1.42199902     5.42431299     1.09103702     0.50132905     0.78870496     0.31783346
O       1.62935998     0.91999698     0.84254702    -2.25136212     2.06286677     2.38204389
O       4.42097800     8.67341098     3.52136302     0.90241461    -2.28139725     0.36312578
O       4.37554199     3.58679499     3.86463601    -0.40896496     0.64204635    -0.30807407
O       1.59171199     8.59600002     3.80438601    -0.35665893    -3.46859969    -1.73968386
O       1.25496602     3.55905600     3.92432901     2.48686215     0.49156040    -1.26089003
O       2.94661302     1.57041001     3.13862203     0.51816824    -1.88347003     1.43226929
O       5.75624301     5.86968502     3.14830100     0.29635754     0.41568094     0.98176325
O       0.05944899     1.34286501     3.17215498     0.78683499     0.70195822    -0.56102649
O       2.90292399     7.57079397     1.52011901     0.26848832    -0.69343784     1.04795710
O       3.21048599     3.31263599     1.58617298    -2.66937300     0.67115896    -0.94062250
O       0.10827898     7.88040198     1.52688698    -0.09531032     0.02054081    -0.81326131
O       0.01079702     3.20706798     1.40421898    -0.10806659    -0.61277973     1.04015688
