# total energy = -4989.85372528 eV

CRYSTAL
PRIMVEC
        2.89625590     0.00000000     0.00000000
        0.45266791     4.51536540     0.00000000
       -0.00000301    -0.00005889     4.54369601
PRIMCOORD
6 1
Ti      1.67446045     2.25765325     2.27184801     0.00000000     0.00000000     0.00000000
Ti      0.00000000     0.00000000     0.00000000     0.00000000     0.00000000     0.00000000
O       1.53634567     0.87996677     0.88549942    -0.84634088     0.43882319     0.43815085
O       1.81257528     3.63533973     3.65819654     0.84634088    -0.43882319    -0.43815085
O       0.13811354     1.37766261     3.15734835     0.84649515    -0.44096801     0.44043091
O       0.31455155     3.13764379     1.38634761    -0.84649515     0.44096801    -0.44043091
