# total energy = -19517.43251356 eV

CRYSTAL
PRIMVEC
        5.17600016     0.00000000     0.00000000
        0.00000000     5.50899976     0.00000000
        0.00000000     0.00000000     9.26300011
PRIMCOORD
23 1
Ti      1.89963499     3.21173199     3.37322900    -0.95394905    -0.16862638     2.53468520
Ti      3.37355201     2.27349501     5.86460698     0.20573384     0.44721554    -2.52925580
Ti      4.31689598     2.11290601     1.53109500     1.36313384    -1.43848313    -0.48366145
Ti      0.83208000     3.36416002     7.79481799    -0.36968852     0.98404768     0.24150072
Ti      1.97616100     0.23750099     1.29716198    -0.00236644    -0.40133264    -0.62485312
Ti      3.24662901     5.26095401     7.91569303     0.09129245    -0.47856449     0.70667208
Ti      0.81555300     0.58198501     5.91694398    -1.46163901    -1.07453974    -3.16288744
Ti      4.47340898     4.87773300     3.39867999     1.10473788     1.25311038     3.03091575
O       1.71973298     1.96217802     4.72147701    -0.28756385    -1.24723978     0.78575359
O       3.54060401     3.49560500     4.43715399     0.09656219     0.17447872     0.10043890
O       5.10225899     2.60337300     9.23177500     0.42458956     0.83295006    -0.36370042
O       3.75485100     0.53354503     0.26889200    -1.66858101     0.01740535    -0.07328675
O       1.68393800     4.63501601     9.00325298     0.24305547     0.68558388     0.86027601
O       4.28096299     0.63817099     4.92919602    -0.97170792     0.82101782    -0.45435472
O       0.89313197     4.67880702     4.45850899     1.31980302     0.01722408     0.62502924
O       0.12437301     3.39205798     2.56610902     0.50416009    -0.83907829    -1.22532934
O       5.12230698     2.22501603     6.56174599    -0.04927650    -0.06196001     0.68038331
O       2.53074802     1.80266199     2.22889399     0.28403090     0.85975485    -0.94312573
O       2.58107902     3.69700399     6.91795700    -0.31904240    -0.53691390     0.41918999
O       0.18618599     0.65797799     2.21740402     0.30613931     0.28935283    -0.71603373
O       4.95310800     4.84970502     7.14173902     0.62409799    -0.03545218     0.72558821
O       2.34815499     1.09945702     7.04174701    -0.25025379    -0.28903401     0.76926818
O       2.84401799     4.56978798     2.36186502    -0.23326831     0.18908337    -0.90321242
