# total energy = -39031.67421146 eV

CRYSTAL
PRIMVEC
        5.93200024     0.00000000     0.00000000
        0.00000000     9.29399984     0.00000000
        0.00000000     0.00000000     9.29399984
PRIMCOORD
46 1
Ti      4.51762598     7.30590202     6.98417803    -1.46489608    -0.97006010     0.12214673
Ti      4.57078898     6.51403002     2.39513699    -1.20595453     1.28579991    -0.76873596
Ti      4.43990302     2.16219401     7.10926801    -1.46331742     0.59188591    -1.28884770
Ti      4.52064599     2.62036101     2.10052999     0.35346460    -0.85265937     0.76593732
Ti      1.51402601     6.88392503     7.01923898     0.39151514     1.34046056    -0.12985978
Ti      1.47000900     7.08704802     2.10328901     0.53727874    -0.00872376    -0.26167335
Ti      1.41923698     2.47950700     6.82973500     1.32663907    -0.81821943    -1.31727048
Ti      1.46680398     2.00902101     2.74240802    -0.44342187     1.55461270    -0.74436369
Ti      2.97773902     4.68054103     4.61498200    -0.40331702    -0.51821092     0.52766024
Ti      2.89426898     4.76751501     8.99628900     1.12135235     0.02767331     1.50353078
Ti      2.83479702     9.18125201     4.54958998     0.74081891     0.09790533     0.89337666
Ti      2.89683798     0.09462001     0.24829499    -1.02687044    -1.10597021    -1.76995347
Ti      5.92770898     4.74977101     4.68732301    -0.29987559    -0.74138353     0.60924086
Ti      0.01714000     4.66887600     9.07135798    -0.98663318     0.36303065     0.57452581
Ti      5.82948898     9.04076598     4.90709900     0.89519238     2.45226717    -2.49821383
Ti      5.92048799     0.12339800     9.26407502     0.40111924    -1.73734647    -0.95720458
O       4.68586402     5.70091801     5.61914002    -1.47291947    -0.38886124    -1.10230767
O       4.40444502     5.19039299     0.93501201    -0.05438708     0.81635667     1.12586644
O       4.67836600     0.85273501     5.70144697    -2.23505155     1.31644002     0.25761332
O       4.46460099     0.69081899     0.92446302     1.10487851     3.50488028     1.81825706
O       1.46551200     5.64474500     5.46271898     0.44136705     0.38046453     0.63356119
O       1.37424300     5.84682398     0.41324499     0.80840296    -0.50151160     2.70055149
O       1.42300700     1.05581101     5.51854400     1.15060277    -0.63563196    -1.43585829
O       1.33300199     0.70198500     1.08246302     0.80925733     0.67083449     1.93304915
O       4.39011500     8.33528598     8.53336702     0.75102028    -0.30525048    -1.39549504
O       4.54246598     8.06452000     4.21257699    -1.64157644     0.09757520    -2.48899565
O       4.39963099     3.81727698     8.29198800     0.24115774    -1.16900596     0.12264141
O       4.43620401     3.99680301     3.41689401    -0.31198960    -0.39812133     0.61391950
O       1.71313499     8.61798701     8.33879098    -1.79735193    -1.95074451     0.03477701
O       1.37003302     8.29811900     3.79931602     0.93760094     1.28073278    -0.61788106
O       1.48040802     3.84192198     8.29651602    -0.16202378    -1.57102920    -0.54808998
O       1.39782499     3.62391000     3.90774200     1.34135350    -0.77880518    -1.17901244
O       2.94319300     5.95816700     7.72136702     1.60759982     1.52310048    -1.03586854
O       2.88730501     6.21085099     3.20935001     0.03321558    -1.48180675     0.18603789
O       2.81007799     1.48753201     7.82872798     1.30908152     0.69248164     0.43891961
O       3.19674601     1.39907199     3.30213700     0.06289563    -0.25694740    -0.52514956
O       5.87924000     6.10478000     7.77257699    -0.40603236    -0.10831007     0.30866259
O       0.17603198     5.98365800     3.15182098     0.31014869    -0.69256855     0.18922735
O       0.06718101     1.48150701     7.96309699    -0.34290044     0.30874949     0.07644510
O       2.93716499     7.92208300     6.05037899    -0.42388817    -0.12624790     0.68563222
O       2.97925802     7.92067401     1.42084399    -0.04057974    -0.84149975     0.78199437
O       3.08739799     3.32783099     6.02345800    -0.85622961     0.00040803    -0.25025688
O       0.13904698     8.12330900     6.33214699     0.81034234    -2.01053348     2.55573020
O       5.76005801     7.72371599     1.49613501     0.02172197     0.32462838    -0.22427304
O       5.77575097     3.25150098     6.07364501     0.80273881     0.04720496     0.13775384
O       0.31912098     2.85060498     1.34491202    -1.27155034     1.29195642     0.94225361
