# total energy = -18964.88829937 eV

CRYSTAL
PRIMVEC
        7.60600008     0.00000000     0.00000000
        0.00000000     7.60600008     0.00000000
       -1.89786986    -1.89786986     4.85670466
PRIMCOORD
22 1
Ti      5.99555602     4.85163001     0.04909701   -15.52243149    14.86743680     2.95689186
Ti      5.12270524     3.04844022     2.51487784    -8.46162988     4.08897266     4.19514563
Ti     -0.35012277     4.07194724     4.68845683    -3.03747592    18.14174637     6.68238676
Ti      0.21558401     3.54548900     1.50062301     5.01128941    -6.31090746    17.76659966
Ti     -1.62667975     2.37019623     4.74712682   -40.35300240    56.87622614    76.73181780
Ti      5.25927223     1.51780624     3.96333784   -52.53581415   -37.22406048   -41.82805306
Ti     -0.50067777     2.25991722     4.07859883    92.35884926   -11.72199199   -51.33107833
Ti     -0.84369280     0.18695324     4.07501980    14.02920955   -18.30013256     5.19222777
O       4.38571701     4.65072702     1.37860098    -1.65586356     2.13699735    -0.52351742
O       5.38764000     6.51301199     1.14650998    -0.69290665    -3.36058195    -1.03320564
O       0.98519199     5.45405201     1.86097700    -0.67842362    -0.12497623    -2.81603264
O      -0.91535578    -1.75817675     4.62067383     0.98886670     1.47598757    -0.66476488
O       6.41415798     4.51490299     2.05510700     0.13158268     6.01572286     4.55582963
O       5.90697921     0.58074425     2.72168279     4.37100966     1.28615858   -13.61613030
O       1.09643325     3.49018024     4.59363679     7.58150006     0.39723687     2.52943577
O       1.79344600     3.46192202     0.94583300     6.56377529    -2.46578346    -1.64103703
O       3.62907223     2.46853022     2.43203583    -3.34446781    -2.80141308     1.09365025
O       0.77361523     2.77893025     2.92872382     1.30829244    -0.49472568    -4.00928771
O       4.31625424     4.49185520     3.96633880     2.01065844    -1.68977128    -0.80009109
O       6.03976999     3.48303799     1.28028699     3.22986213    -6.11999990   -10.35677350
O       1.00292324     0.60160622     3.82636883    -2.94019228    -0.99484477     0.16901796
O       4.82287722     0.09034622     4.20659983    -8.36268763   -13.67729661     6.74696929
