# total energy = -4988.21403458 eV

CRYSTAL
PRIMVEC
        4.45538824     0.00000000     0.00000000
       -0.00000830     3.64531745     0.00000000
       -2.22772385    -1.82270038     5.22136446
PRIMCOORD
6 1
Ti     -0.00019338     2.73412395     1.30534126    -0.00219521    -0.00154112     3.36065162
Ti      2.22784947    -0.91150711     3.91602337     0.00219521     0.00154112    -3.36065162
O       0.00004596     0.91132169     0.85051767     0.00023731     0.00066772    -0.72023980
O       2.22761002     0.91129504     4.37084702    -0.00023731    -0.00066772     0.72023980
O      -0.00002155    -0.91131340     3.46119979    -0.00218827    -0.00021032    -1.54508111
O       2.22767742     2.73393013     1.76016485     0.00218827     0.00021032     1.54508111
