# total energy = -39032.24941615 eV

CRYSTAL
PRIMVEC
        5.93200024     0.00000000     0.00000000
        0.00000000     9.29399984     0.00000000
        0.00000000     0.00000000     9.29399984
PRIMCOORD
46 1
Ti      4.49618102     6.87579702     6.83160702     0.36913445     0.39469816    -0.74387339
Ti      4.35936398     6.86192300     2.43712900     1.21328398     0.25075721     1.04725724
Ti      4.49750798     2.38664999     6.93601798    -0.39680287    -0.64692785     0.26124500
Ti      4.16545698     2.74410599     1.94121599     0.40633909    -1.46154851     1.37275054
Ti      1.53181103     6.88847801     6.99393902     0.35119251     0.28178041     0.48558541
Ti      1.38854999     7.26701602     2.15857602    -1.83241433    -2.11351623     0.98265054
Ti      1.61463198     2.42249698     7.04356701     0.01717215    -0.53895330     0.15687797
Ti      1.23819401     1.84160901     2.65910102     0.70044435     1.48701735    -0.42553676
Ti      2.86093801     4.63866400     4.65983702     0.46047395     1.13004551    -1.30043566
Ti      3.09805900     5.01811700     9.13164101    -1.17893325    -2.43766690     2.77226884
Ti      3.04598198     9.27295700     4.59415400     1.29260974     0.25623392    -0.03241879
Ti      2.97342400     9.20627998     9.20082898     0.38703319     0.29700315    -0.21296995
Ti      5.91964602     4.53403301     4.67090698    -0.47936719     1.15291342    -0.95269229
Ti      0.06780602     4.64293801     9.23817301     1.08947169    -0.53204886     0.92359202
Ti      0.10912799     9.10095698     5.00767200    -1.68655045     0.86426379    -1.51689332
Ti      5.90814700     0.20524198     9.28711799    -1.33196486    -0.69909015    -0.01675306
O       4.40320098     5.36070202     5.68729101     0.18558487     1.11910161    -0.30418836
O       4.55434802     5.52388901     0.98178599    -1.11715579    -0.58567309     0.18792997
O       4.41041800     0.69096499     5.75830501     1.19136274     0.51483763    -0.80215929
O       4.21748802     1.05154600     0.86278101     1.49334818     0.81883264    -0.13153537
O       1.37671801     5.41178101     5.82856202     0.58278806    -1.00473555    -1.60980582
O       1.50231903     5.75182999     0.75983402     0.91936255    -0.43481819     0.16141520
O       1.42575200     0.84495102     5.66507202     1.53194816     0.62465334    -0.77313615
O       1.46993798     0.83457100     0.98360001    -0.78900500     0.15774367     0.55287763
O       4.44365499     8.43162799     8.47993102     0.56207498    -0.56240023    -1.36436977
O       4.69120998     8.26105902     3.86147402    -1.66028174     0.50489414    -0.57305437
O       4.51893400     3.88545300     8.26989798    -0.54991135    -1.12081473     0.80075212
O       4.42409501     4.01099702     3.54618201    -0.94140720    -1.16713086     0.13448211
O       1.60914499     8.53744301     8.06045602    -0.92013620    -0.55329132     2.10927211
O       1.65041002     8.40748898     3.74074599    -1.62245643     0.67619627    -0.26294399
O       1.70579398     3.70172203     8.47229298    -0.55846541     0.36616405     0.16042018
O       1.28167598     3.48267101     3.85716800     0.95699452    -0.19800099    -0.44349335
O       3.15094201     6.12612003     7.81931000    -1.24255086     0.34413380     0.10622028
O       2.72977402     6.07564800     3.40191798     1.62986944     0.46346954    -1.20493432
O       3.09077699     1.47006800     7.77912201    -1.09244080     0.00952183     0.79155400
O       3.00842199     1.35229802     3.21028400    -0.01663864     0.92926568     0.16810907
O       5.89310503     5.92685002     7.97339102     0.22012097     1.91243918    -1.16006598
O       0.25138899     6.09579902     3.26400200    -1.66905512     0.23703292    -0.43414584
O       0.14120502     1.31610298     7.82124103    -0.73448526     1.26664776     0.63882887
O       2.93347101     7.72261397     6.06029599     0.84008102     0.45903799    -0.96402520
O       3.01274700     7.93453301     1.44857801    -0.00165296    -0.52882212     0.01308229
O       3.04026099     3.31766502     5.97700603    -0.20052735    -2.26520315     1.27118267
O       0.13310898     7.59721299     5.96439499    -0.58069081    -0.11833172     0.72339248
O       5.62432098     7.85315401     1.31656500     2.25466445     0.39457886     0.95181349
O       0.00117800     3.13260301     6.11736003     0.91381720     0.72995523    -0.96642636
O       5.85258598     3.18435501     1.55088501     1.03372141    -0.67424480    -0.57770293
