# total energy = -19074.44453959 eV

CRYSTAL
PRIMVEC
        5.17600016     0.00000000     0.00000000
        0.00000000     5.50899976     0.00000000
        0.00000000     0.00000000     9.26300011
PRIMCOORD
22 1
Ti      2.03906399     3.45344000     3.28506299    -0.63414252     0.31979444    -0.78098136
Ti      3.45489201     2.23423302     5.96422301    -0.24532216     0.38606542    -0.66334589
Ti      4.42064102     2.29963102     1.23990601    -0.48414688     0.49049082    -1.64689632
Ti      0.66868499     3.19843901     8.06830700    -0.13875632     0.78588394     0.25767503
Ti      1.85146499     0.50813002     1.39973399    -0.12527602     0.05556619    -2.24791916
Ti      3.11599901     5.09969201     8.06077898     0.93535662    -0.27010734     0.88432380
Ti      0.53734103     0.25097797     6.05630398     0.80194563    -0.19330152    -1.65863983
Ti      4.60212701     4.98942999     3.38875797    -0.66730539     0.33216325     0.33319812
O       3.55421302     3.38100002     4.31636003     0.08460398    -0.18842388     1.91435156
O       0.84379001     2.01795003     0.15960801     0.35411714    -0.52056091    -0.47340480
O       4.11995599     3.57262902     8.93940801     1.40252958     0.07677317     0.62932016
O       3.38423002     0.88632601     0.25710003     0.83035581     0.28614023    -1.82992165
O       1.74287501     4.76377701     9.20385899    -2.60820849    -0.97635853    -0.40289639
O       4.15112999     0.72831797     4.67575202     0.36650755    -0.45148203     0.37283915
O       1.03792799     4.76416701     4.39604602     0.33302355    -0.29485036     0.84721532
O       0.26470102     3.49676501     2.34569601     0.15935729    -0.49157685     0.26249790
O       0.06731399     2.01492599     6.43462100     0.71675544     1.36668762     1.70807214
O       2.68247399     1.93208498     2.23568101     0.13740006     1.54313967     1.43447529
O       2.40542102     3.50930000     7.21157401    -0.60294680    -1.02846453    -2.03361171
O       0.05183699     0.71950802     1.99722099     0.22568355    -0.89240478     1.70222673
O       2.42709702     0.71546098     6.58651799    -0.94498104    -0.01875672     0.49794188
O       2.90974101     4.71554298     2.26274298     0.10344940    -0.31641781     0.89348028
