# total energy = -39040.35177424 eV

CRYSTAL
PRIMVEC
        7.60629642    -0.00000847    -0.00005503
       -0.00000847     7.60629642    -0.00005503
       -3.80314186    -3.80314186     9.70738094
PRIMCOORD
46 1
Ti      1.90150312     4.70085943     6.10459433    -0.00026765    -0.03268130    -0.18106975
Ti      3.83998802     6.66313850     1.19681874    -0.09150894    -0.00306527    -0.01605449
Ti      1.90158610     1.00887712     5.95217336    -0.00012933    -0.02174126    -0.03687349
Ti      3.79774294     2.84608845     1.23129485    -0.00061167     0.00587883     0.04647939
Ti     -1.90166054     4.76119660     6.05785503     0.00019540     0.04148811     0.04993110
Ti     -0.03703910     6.66312342     1.19687309     0.09200439    -0.00309947    -0.01587940
Ti     -1.90172879     0.93550407     6.09444932    -0.00031907     0.05872582     0.25219986
Ti      0.00506089     2.84600992     1.23135078     0.00084769     0.00610303     0.04663597
Ti      3.89546457     0.94139362     8.54804281    -0.06745883    -0.00220652    -0.07003173
Ti      5.70495117     2.84472542     3.64648241    -0.00027922    -0.00687333     0.02989577
Ti      3.79553639    -2.84831857     8.48914084    -0.01984455     0.05015376     0.00155320
Ti      5.70479974    -0.93966118     3.65018300    -0.00045457    -0.00631155    -0.03431601
Ti     -0.09237033     0.94143672     8.54790616     0.06756270    -0.00223172    -0.06934191
Ti      1.90177544     2.90278911     3.67595163     0.00001954     0.02371201     0.12653509
Ti      0.00798107    -2.84828067     8.48918153     0.01969877     0.05026329     0.00155578
Ti      1.90161968    -0.98637631     3.47751265    -0.00034813     0.16210966     0.13166984
O       1.90163460     2.85909488     5.64441244     0.00011081    -0.06919818     0.05547260
O       3.83734464     4.75193992     0.81077206    -0.00007662    -0.02364902    -0.03820506
O       3.79007756     0.95087501     0.76520946    -0.02415424     0.01997619     0.01852069
O      -1.90154815     2.83191274     5.70274501     0.00007662     0.02551821     0.01702097
O      -0.03418499     4.75193488     0.81086376    -0.00027588    -0.02370224    -0.03839995
O      -1.90158397    -0.93057612     5.67439288     0.00010053    -0.05914979    -0.10435392
O       0.01317687     0.95086472     0.76523918     0.02402594     0.01982501     0.01877215
O       3.68586221     2.82996924     8.86476782    -0.04428984    -0.01454216     0.02437227
O       5.70469129     4.75490515     4.08535394     0.00009873    -0.04236203     0.01203765
O       3.71287020    -0.93070534     8.90393696     0.00075796    -0.00015221     0.10141052
O       5.70468216     0.95152269     4.07392056     0.00012290     0.02277150     0.11407938
O       0.11728107     2.82994893     8.86478914     0.04436209    -0.01411228     0.02404034
O       1.90145345     4.84000723     4.10595195    -0.00002597    -0.02567479    -0.20214072
O       0.09027572    -0.93066330     8.90397814    -0.00065229    -0.00025917     0.10116395
O       1.90148176     0.85068072     4.06604245     0.00007353     0.01667721    -0.07576684
O       3.78482970     2.84988119     3.25174289     0.04321075     0.01400943    -0.03498039
O       1.90159827    -2.81502812     8.08699446     0.00020157    -0.01297199    -0.11335407
O       3.81870456    -0.95123442     3.19119361     0.00755879    -0.01575290    -0.03520279
O      -1.90160671     0.96915167     8.07619997     0.00019875     0.06637717     0.11118123
O       0.01829117     2.84986760     3.25174891    -0.04301869     0.01385748    -0.03483255
O      -1.90156273    -2.86742607     8.07382490     0.00019515    -0.04285671     0.06400224
O      -0.01557759    -0.95122785     3.19125161    -0.00764081    -0.01566497    -0.03538816
O       3.78719537     4.85396112     6.46214149    -0.00682345     0.02199168     0.06293214
O       5.70469764     6.66967047     1.63574409     0.00009436     0.05565283    -0.07809523
O       3.67628994     0.83899937     6.54658221     0.00572225    -0.10089193    -0.10271252
O       5.70471727     2.83699545     1.67852830    -0.00021546    -0.05361421     0.00392453
O       0.01593012     4.85396109     6.46218504     0.00705177     0.02202639     0.06292983
O       1.90157465     6.63838002     1.54840483    -0.00012007    -0.02713363    -0.06729428
O       0.12694053     0.83899339     6.54666706    -0.00581121    -0.10102614    -0.10257703
O       1.90155903     2.86629651     1.62372395     0.00003497     0.02380688     0.00855483
