# total energy = -19517.07582903 eV

CRYSTAL
PRIMVEC
        5.17600016     0.00000000     0.00000000
        0.00000000     5.50899976     0.00000000
        0.00000000     0.00000000     9.26300011
PRIMCOORD
23 1
Ti      1.90175699     3.21385801     3.42138900    -0.41594602    -0.56844978     2.80693993
Ti      3.37716100     2.25913298     5.85599499    -0.55806998    -0.07746737    -2.13191582
Ti      4.31212999     2.17032402     1.45744702     1.02272300    -0.80249430    -0.95209322
Ti      0.82783399     3.26252999     7.82097898    -1.23005400     1.26344365     1.02990409
Ti      2.10097402     0.28821602     1.31002998    -0.67327704    -0.11504123     0.07059918
Ti      3.09111800     5.16708702     7.85473699     2.29096869     1.11063882     1.43735262
Ti      0.79765702     0.47278003     5.98151001    -0.69618377     0.02082594    -2.83431447
Ti      4.56565998     4.88540702     3.37457200     0.30227006     1.20101441     2.55015424
O       1.60446600     1.84890102     4.83602002     1.12645265     0.95919333    -0.81207372
O       3.59834402     3.48304101     4.47728399    -0.00647275     0.33954129    -0.23941864
O       4.70801300     3.08717399     9.20481299     0.57640092    -0.14310817     0.07655257
O       3.30838801     0.92114403     0.04925402     1.26293148     1.15253830     1.62487867
O       1.79259000     4.70769999     9.11091599    -1.15746119    -2.13844797    -0.65470415
O       4.36369699     0.63065302     4.84542901    -1.13481876     0.60460105    -0.10161852
O       1.05136899     4.69905001     4.47888602     0.28484234    -0.59386540    -0.19410396
O       0.17512200     3.37468302     2.53051503     1.05719765    -0.61541305    -0.43371852
O       5.03253698     2.10891401     6.71590098     0.22988936    -0.61268588     0.73298733
O       2.75436600     1.75651498     2.45032800     0.13474103     0.76531408    -0.68312565
O       2.51959101     3.73413699     6.92388299    -0.28523032    -1.87640258    -1.05498393
O       0.32787801     0.72511799     1.92465200    -0.90795971    -0.03452144    -0.06736061
O       5.04646101     4.70001702     7.21037701    -0.58414251     1.13645039    -0.07543182
O       2.33132699     1.13980599     7.04757701    -0.77375167    -0.58574688     0.19051624
O       2.93050900     4.52527598     2.32846298     0.13495083    -0.38991668    -0.28502155
