# total energy = -19074.44600574 eV

CRYSTAL
PRIMVEC
        5.17600016     0.00000000     0.00000000
        0.00000000     5.50899976     0.00000000
        0.00000000     0.00000000     9.26300011
PRIMCOORD
22 1
Ti      1.99431501     3.43072898     3.29761698     0.51349731     0.69415800    -0.91540691
Ti      3.61474899     2.25276201     5.92118502     0.79009130     0.21352428    -1.23922230
Ti      4.49126401     2.26007402     1.24356998     0.28053806     0.34741607    -1.11020301
Ti      0.58522400     3.21240701     8.06069003    -0.62948111    -0.16124679     1.08328175
Ti      1.86389298     0.40778902     1.27376298     0.13028222     0.28560827    -1.80535860
Ti      3.08922000     5.16659298     7.90309099     0.69469048    -0.53192802     1.00340295
Ti      0.57722099     0.00381399     6.16923501     0.66749154     1.42681160    -0.82521823
Ti      4.59362102     5.09051798     3.36159901    -0.43828712    -0.77951866     0.90373024
O       3.61603600     3.46183000     4.34705601    -0.67911781    -0.35509699     1.46986243
O       0.93882902     1.98382100     0.23372500    -0.74477996    -0.67888667     0.01553230
O       4.22771701     3.71393300     8.92122601    -0.85030193    -0.52152687     0.42980710
O       3.36965399     0.73252599     0.16685498     0.82869977     1.46685578    -0.35327613
O       1.65118997     4.53190699     9.07129702    -0.09420397     1.44288795     1.46046658
O       4.53330402     0.85017897     4.81604501    -1.20519785     0.76330605     0.78973263
O       0.95345998     4.77803199     4.44386301     1.47111867    -2.03519346    -0.09223810
O       0.29516697     3.59021798     2.27075001    -0.18418490    -0.55548859     0.67573373
O       4.86616101     1.64499299     7.15928400     0.77351333    -0.59599530    -0.49551218
O       2.66273398     1.91171103     2.35739400     0.68643620     0.53780736    -0.03522233
O       1.76790901     4.05151200     6.85339002     0.73465161    -0.28238796    -1.96066281
O       0.27119397     0.75450500     2.24916900    -1.03328226     0.79815299    -0.29454620
O       2.35460899     1.08264199     6.51850400    -1.27007427    -0.86381591     0.62321173
O       2.95383598     4.75610902     2.30871202    -0.44209981    -0.61544288     0.67210513
