# total energy = -19516.82259542 eV

CRYSTAL
PRIMVEC
        5.17600016     0.00000000     0.00000000
        0.00000000     5.50899976     0.00000000
        0.00000000     0.00000000     9.26300011
PRIMCOORD
23 1
Ti      1.89670398     3.18166700     3.34960701    -0.86934764     0.24857409     1.37580064
Ti      3.28413302     2.21805200     5.87936298     0.57363030     0.29644470    -0.99631570
Ti      4.47848898     2.25676999     1.32125097     1.13717930    -1.35777360    -2.01903047
Ti      0.69773502     3.38365999     7.99974902    -0.39124903    -1.42856381     1.95868408
Ti      1.87221599     0.55771297     1.31074702    -0.35615680     0.47983590    -2.68902189
Ti      3.35547098     5.05350002     7.97573702    -1.05231358     0.60547574     2.79952563
Ti      0.76722700     0.55864099     5.83834502    -0.53359564     0.10144060    -1.84368271
Ti      4.45298301     4.90213500     3.49054501     0.31454425     1.17004469     0.58718619
O       1.50982398     1.93684901     4.71079298     1.05522895    -0.09156550     0.01766091
O       3.42380702     3.51489198     4.37866102     0.55920203     0.40851888     1.54302885
O       0.92347198     2.03429398     0.14632598    -0.95116865     0.78662133    -0.05508668
O       3.49066598     0.86844300     0.18220599     0.07323019    -0.88114592    -1.67759736
O       1.74037603     4.64809198     8.92217302     0.43528921     1.61683445     2.22963141
O       4.28099601     0.81708402     4.69280302    -0.32120212    -0.17980348     0.36457665
O       0.90146001     4.63623598     4.51311702    -0.02185721     0.83157426     0.50372095
O       0.06669501     3.28672599     2.65961300     0.52061902     0.67978630    -1.02606132
O       5.04090301     2.27997002     6.70952498    -1.38976713    -1.37627861    -0.65296403
O       2.84876402     2.00819401     2.22278602    -1.49935711     0.59777425     0.37541205
O       2.24817499     3.13223999     7.19834902     3.80000549     0.23687839    -2.14703854
O       0.07069300     0.68825000     2.00282201     0.73700391    -1.85503876     1.44642501
O       5.08116302     4.87558698     7.07121101    -0.92668454     0.61871769     0.49601869
O       2.62408600     0.62966902     6.71791498    -1.54540687    -0.44523450    -0.85845593
O       2.62420401     4.91037800     2.47766800     0.65217367    -1.06311684     0.26758355
