# total energy = -39038.85370090 eV

CRYSTAL
PRIMVEC
        5.93188753     0.00000000     0.00000000
        0.00000000     9.29428401    -0.00002646
        0.00000000    -0.00002646     9.29428401
PRIMCOORD
46 1
Ti      4.44891576     6.97069300     6.97069300    -0.00000000     0.00000000     0.00000000
Ti      4.44891576     6.97070623     2.32355100     0.00000000     0.00000000     0.00000000
Ti      4.44891576     2.32355100     6.97070623     0.00000000     0.00000000     0.00000000
Ti      4.44891576     2.32356423     2.32356423     0.00000000     0.00000000     0.00000000
Ti      1.48297199     6.97069300     6.97069300    -0.00000000     0.00000000     0.00000000
Ti      1.48297199     6.97070623     2.32355100     0.00000000     0.00000000     0.00000000
Ti      1.48297199     2.32355100     6.97070623     0.00000000    -0.00000000    -0.00000000
Ti      1.48297199     2.32356423     2.32356423     0.00000000     0.00000000     0.00000000
Ti      2.96594376     4.64977438     4.64344148     0.00000000    -0.01696980    -0.00007533
Ti      2.96594376     4.76252705    -0.11539827    -0.00000000     0.00846022    -0.00846022
Ti      2.96594376     0.04259833     4.60453044     0.00000000    -0.03521744     0.03521744
Ti      2.96594376     0.00368729    -0.00264561    -0.00000000     0.00007533     0.01696980
Ti      0.00000000     4.64344148     4.64977438    -0.00000000    -0.00007533    -0.01696980
Ti      0.00000000     4.60453044     0.04259833     0.00000000     0.03521744    -0.03521744
Ti      0.00000000    -0.11539827     4.76252705    -0.00000000    -0.00846022     0.00846022
Ti      0.00000000    -0.00264561     0.00368729     0.00000000     0.01696980     0.00007533
O       4.44891576     5.55678070     5.55678070     0.00000000     0.00050394     0.00050394
O       4.41455395     5.48173150     0.96266684     0.01952496    -0.01357466     0.00712761
O       4.48327756     0.96266684     5.48173150    -0.01952496     0.00712761    -0.01357466
O       4.44891576     0.93970346     0.93970346     0.00000000    -0.02376831    -0.02376831
O       1.48297199     5.55678070     5.55678070     0.00000000     0.00050394     0.00050394
O       1.51733380     5.48173150     0.96266684    -0.01952496    -0.01357466     0.00712761
O       1.44861018     0.96266684     5.48173150     0.01952496     0.00712761    -0.01357466
O       1.48297199     0.93970346     0.93970346     0.00000000    -0.02376831    -0.02376831
O       4.44891576     8.38460536     8.38460536     0.00000000    -0.00050394    -0.00050394
O       4.48327756     8.45968102     3.68443521    -0.01952496     0.01357466    -0.00712761
O       4.41455395     3.68443521     8.45968102     0.01952496    -0.00712761     0.01357466
O       4.44891576     3.70742506     3.70742506    -0.00000000     0.02376831     0.02376831
O       1.48297199     8.38460536     8.38460536     0.00000000    -0.00050394    -0.00050394
O       1.44861018     8.45968102     3.68443521     0.01952496     0.01357466    -0.00712761
O       1.51733380     3.68443521     8.45968102    -0.01952496    -0.00712761     0.01357466
O       1.48297199     3.70742506     3.70742506     0.00000000     0.02376831     0.02376831
O       2.96594376     6.06163259     7.87975342    -0.00000000     0.02141036    -0.02141036
O       2.96594376     6.09378746     3.26540236     0.00000000    -0.00251325    -0.01095316
O       2.96594376     1.38169964     7.84762502    -0.00000000     0.01095316     0.00251325
O       2.96594376     1.45608126     3.19104721     0.00000000    -0.00402378     0.00402378
O       0.00000000     6.03507847     7.90630755     0.00000000    -0.02296793     0.02296793
O       0.00000000     6.07320368     3.24740332    -0.00000000     0.01725777     0.01069759
O       0.00000000     1.39969869     7.86820879     0.00000000    -0.01069759    -0.01725777
O       2.96594376     7.90630755     6.03507847     0.00000000     0.02296793    -0.02296793
O       2.96594376     7.86820879     1.39969869    -0.00000000    -0.01725777    -0.01069759
O       2.96594376     3.24740332     6.07320368     0.00000000     0.01069759     0.01725777
O       0.00000000     7.87975342     6.06163259    -0.00000000    -0.02141036     0.02141036
O       0.00000000     7.84762502     1.38169964     0.00000000     0.00251325     0.01095316
O       0.00000000     3.26540236     6.09378746    -0.00000000    -0.01095316    -0.00251325
O       0.00000000     3.19104721     1.45608126     0.00000000     0.00402378    -0.00402378
