# total energy = -19071.19914726 eV

CRYSTAL
PRIMVEC
        5.17600016     0.00000000     0.00000000
        0.00000000     5.50899976     0.00000000
        0.00000000     0.00000000     9.26300011
PRIMCOORD
22 1
Ti      1.71540801     3.31711103     3.32394800     2.72804405    -0.26971191    -1.62213530
Ti      3.56962901     2.29566299     6.07584798     1.21281398    -0.35949795    -2.94146626
Ti      4.37083999     2.38730601     1.53481898    -0.96116356    -3.06716883    -1.33929379
Ti      1.13694902     2.99409298     7.87571501    -2.96229941    -0.50267657     1.38841988
Ti      1.79788801     0.53781300     1.17812202    -0.08512129     0.23105561    -1.22712217
Ti      3.21376202     5.46736198     7.82882302     1.97532478    -2.57539966     2.27087474
Ti      0.84853202     5.28417600     6.08737298    -1.61493955     1.84535521     3.34529545
Ti      4.36029798     5.10295301     3.53448000    -1.45174231     0.64199056     0.99168257
O       3.33354500     2.75313100     4.20240901    -0.38245534     0.25552918     1.64985566
O       0.50338198     1.94645400     0.23258102     0.52389255     1.63041117    -0.37306001
O       4.93446101     4.22786698     7.27569399    -0.12582392     0.21207367    -0.34553120
O       3.51258698     0.59420700     0.36529598     0.08666858     0.94732537    -1.06175004
O       1.52361301     5.06818199     8.80195501     0.39576826    -1.41553474     0.23438905
O       4.10751800     0.29637598     5.37439898     0.75916786    -0.94581973    -1.92426111
O       1.25467000     4.46371700     4.63082800    -1.04251098     0.89088886    -0.19054813
O       5.08776102     3.66749399     2.58468902     1.00493481     0.05252843    -0.71277588
O       4.92348900     1.69059701     7.06111198     1.77612669    -0.03221388     0.96154460
O       2.31060399     2.29248702     1.89296598     1.76689514    -0.32110211    -1.01224960
O       2.54472000     3.62191601     6.83662298    -0.89848416     2.45802027     0.74988643
O       5.13987201     0.90928998     2.49940702     0.57214420     0.11776171     0.48733067
O       2.30942800     1.18849702     6.91598200    -2.75648149     1.07426361    -1.00218142
O       2.71840899     4.96576301     2.41988698    -0.52075914    -0.86807828     1.67309561
