# total energy = -4970.82539804 eV

CRYSTAL
PRIMVEC
        4.17585693     0.00000000     0.00000000
       -0.00000678     2.78390430     0.00000000
       -2.08795307    -1.39199463     4.62614772
PRIMCOORD
6 1
Ti     -0.00017947     2.08802936     1.15653669    -0.01077164    -0.01984430    21.98702824
Ti      2.08807660    -0.69611998     3.46961040     0.01077164     0.01984430   -21.98702824
O       0.00004394     0.69596851     0.75356155     0.01006253     0.01332680   -11.25972084
O       2.08785309     0.69594082     3.87258559    -0.01006253    -0.01332680    11.25972084
O      -0.00001789    -0.69597108     3.06663531    -0.00102587    -0.00022317     1.15137076
O       2.08791488     2.08788036     1.55951188     0.00102587     0.00022317    -1.15137076
