# total energy = -19932.24055307 eV

CRYSTAL
PRIMVEC
        7.21370535     0.00000000     0.00000000
        0.00002722     4.60653818     0.00000000
        0.00000000     0.00000000    11.01734069
PRIMCOORD
24 1
Ti      2.61463715     2.72983024     4.08735484     0.46307256     0.06192813     1.31288212
Ti      4.59909494     1.87670788     6.92998597    -0.46307256    -0.06192813    -1.31288212
Ti      6.22136572     1.87670943     1.42127155     0.46219607    -0.06227883    -1.31317034
Ti      0.99236644     2.72982887     9.59606932    -0.46219607     0.06227883     1.31317034
Ti      2.61462378     0.42656121     1.42131575     0.46307256     0.06192813    -1.31288212
Ti      4.59910832     4.17997703     9.59602518    -0.46307256    -0.06192813     1.31288212
Ti      0.99235301     0.42655954     6.92994178    -0.46219607     0.06227883    -1.31317034
Ti      6.22137909     4.17997870     4.08739897     0.46219607    -0.06227883     1.31317034
O       2.28319274     1.62204036     5.62206465     1.15400074     0.85275502    -1.01995752
O       4.93053941     2.98449771     5.39527616    -1.15400074    -0.85275502     1.01995752
O       1.32372103     1.62205896     0.11342970    -1.15389661     0.85317334    -1.02107620
O       5.89001119     2.98447916    10.90391075     1.15389661    -0.85317334     1.02107620
O       4.93052604     0.68122856     0.11339395    -1.15400074    -0.85275502    -1.01995752
O       2.28320612     3.92530950    10.90394651     1.15400074     0.85275502     1.01995752
O       5.88999775     0.68121001     5.62210034     1.15389661    -0.85317334    -1.02107620
O       1.32373428     3.92532811     5.39524041    -1.15389661     0.85317334     1.02107620
O       0.26210706     2.80195766     2.97605858    -1.75630142     0.64194839     0.72169890
O       6.95162510     1.80458041     8.04128217     1.75630142    -0.64194839    -0.72169890
O       3.86896804     1.80453758     2.53264681    -1.75667012    -0.64158304    -0.72227123
O       3.34476406     2.80200054     8.48469376     1.75667012     0.64158304     0.72227123
O       0.26209362     0.49868851     2.53261165    -1.75630142     0.64194839    -0.72169890
O       6.95163847     4.10784955     8.48472893     1.75630142    -0.64194839     0.72169890
O       3.34475069     0.49873139     8.04131728     1.75667012     0.64158304    -0.72227123
O       3.86898141     4.10780667     2.97602341    -1.75667012    -0.64158304     0.72227123
