# total energy = -19959.94468551 eV

CRYSTAL
PRIMVEC
        5.38278260     0.00000000     0.00000000
        0.00002950     5.72890847     0.00000000
        0.00000000     0.00000000     9.63399726
PRIMCOORD
24 1
Ti      1.95101728     3.39494586     3.57414434     0.00431431    -0.32300010     0.27731749
Ti      3.43179483     2.33396266     6.05985320    -0.00431431     0.32300010    -0.27731749
Ti      4.64231435     2.33396463     1.24281593     0.01544591     0.32328935    -0.27596946
Ti      0.74049776     3.39494411     8.39118171    -0.01544591    -0.32328935     0.27596946
Ti      1.95100264     0.53049173     1.24285457     0.00450457    -0.32296667    -0.27632299
Ti      3.43180947     5.19841695     8.39114308    -0.00450457     0.32296667     0.27632299
Ti      0.74048312     0.53048960     6.05981456    -0.01511012    -0.32354748    -0.27725193
Ti      4.64232899     5.19841909     3.57418297     0.01511012     0.32354748     0.27725193
O       1.70369507     2.01724612     4.91615516     0.55538420     0.49629277     0.03470605
O       3.67911704     3.71166246     4.71784237    -0.55538420    -0.49629277    -0.03470605
O       0.98774848     2.01726919     0.09918740    -0.55589714     0.49692063     0.03439392
O       4.39506368     3.71163939     9.53480985     0.55589714    -0.49692063    -0.03439392
O       3.67910240     0.84720817     0.09915615    -0.55567268    -0.49684479     0.03513337
O       1.70370971     4.88170035     9.53484111     0.55567268     0.49684479    -0.03513337
O       4.39504904     0.84718510     4.91618642     0.55538651    -0.49644138     0.03388638
O       0.98776301     4.88172348     4.71781111    -0.55538651     0.49644138    -0.03388638
O       0.19558687     3.48464690     2.60238307     0.19186684    -0.11281311     0.13407459
O       5.18722524     2.24426163     7.03161447    -0.19186684     0.11281311    -0.13407459
O       2.88698248     2.24420823     2.21464633     0.19213450     0.11283239    -0.13480865
O       2.49582962     3.48470029     7.41935104    -0.19213450    -0.11283239     0.13480865
O       0.19557223     0.62019261     2.21461556     0.19189847    -0.11237859    -0.13435202
O       5.18723988     5.10871592     7.41938181    -0.19189847     0.11237859     0.13435202
O       2.49581498     0.62024600     7.03164518    -0.19192624    -0.11256422    -0.13378792
O       2.88699712     5.10866252     2.60235230     0.19192624     0.11256422     0.13378792
