# total energy = -4989.70887317 eV

CRYSTAL
PRIMVEC
        3.23085884     0.00000000     0.00000000
        0.00000000     4.14185849     0.00000000
        0.00000000    -0.00006082     4.64855057
PRIMCOORD
6 1
Ti      1.61542942     2.07089878     2.32427539     0.00000000     0.00000000     0.00000000
Ti      0.00000000     0.00000000     0.00000000     0.00000000     0.00000000     0.00000000
O       1.61542942     0.80717535     0.90593410     0.00000000     0.01725519    -0.10968382
O       1.61542942     3.33462222     3.74261668     0.00000000    -0.01725519     0.10968382
O       0.00000000     1.26369882     3.23021032     0.00000000    -0.01768791    -0.10952569
O       0.00000000     2.87809874     1.41834046     0.00000000     0.01768791     0.10952569
