# total energy = -39035.60629384 eV

CRYSTAL
PRIMVEC
        7.60600008     0.00000000     0.00000000
        0.00000000     7.60600008     0.00000000
       -3.79573973    -3.79573973     9.71340985
PRIMCOORD
46 1
Ti      1.84498945     4.85740847     6.35321263     0.31144375     1.74961861    -2.92985567
Ti      3.84210000     6.92369799     1.32227001    -0.02803506    -0.90615119     0.37826495
Ti      1.86285743     0.84862647     6.05680664    -0.30461362    -0.52164257    -0.38312562
Ti      3.72325298     2.92285000     1.22308399    -0.69798946    -1.00738970    -1.47185066
Ti     -1.83814353     4.63483345     6.04994163    -0.78534812    -0.56477413     0.07524850
Ti      0.07885699     6.55936601     1.26138499    -0.54717338    -0.00246903    -0.76889434
Ti     -1.99418457     0.86055746     5.95434263     1.01780345     0.14340719    -0.30570968
Ti     -0.27717003     2.85894100     1.10058798     1.90962279     0.42653820    -0.71366728
Ti      3.73413747     1.05439647     8.38878363     1.16568641    -1.07020512     0.51219865
Ti      5.71196501     2.74089600     3.59185901     0.03439546    -0.67105483     1.32453951
Ti      3.98158345    -2.84635156     8.56485063     0.52362181     1.10089279    -0.32257792
Ti      5.79897900    -1.12868501     3.69579201    -0.85154917     0.74608042     0.29311615
Ti     -0.03170957     1.11875045     8.30034064    -0.94964733    -1.76674165    -0.22515184
Ti      1.86213500     2.88486301     3.42823698     0.21154685    -1.30430286     1.08568368
Ti      0.03805647    -2.74117155     8.51478062    -1.02577001     0.67456516     1.19021860
Ti      1.90062302    -1.01137600     3.74421898     0.89185817     0.61262778     0.92473076
O       1.76160445    -0.93535757     5.81408262     0.82971484    -1.18558522    -0.44419603
O       3.76300398     1.09150301     0.73886299     0.54082044    -0.51691405     0.26675437
O      -1.53126454     2.76366846     5.53176264    -1.14498620    -0.26377651     0.09833162
O       0.30733900     4.76023200     0.71475400    -1.33461669    -0.13121501    -0.02312117
O      -1.79929557    -1.17044154     5.68181460    -0.19623464     2.26514812    -0.57377402
O      -0.02172998     0.98304199     0.77499098    -0.14489663    -0.11723103     0.45068396
O       3.72948245     2.85348947     8.89702763     0.36077039     0.57292376     0.41035722
O       5.50400898     4.60621602     4.14225801     0.24922046    -0.09266362    -1.39986052
O       3.61786346    -0.85335256     8.83369062     0.01118353    -0.94577679     0.55820084
O       5.91384200     0.84773597     4.07213599    -0.40290127    -0.55929228    -0.84616373
O      -0.23446357     2.85726843     8.86749361     0.73424769     0.46930415     1.04615090
O       2.06921799     4.42387302     4.55715901    -0.01344945    -1.04857185    -2.46848595
O       0.03819945    -0.73367753     8.80771865    -0.04240908     0.01342091     1.25548042
O       1.71035400     1.14110099     4.18447598     0.55191732    -0.21331191    -0.28318218
O       1.83776247     0.96264946     8.01860461     0.78964264     1.11243242    -0.15007612
O       3.85926201     2.35349100     3.10027499    -0.27938466     1.56389439     0.24729599
O       1.94298445    -2.80914854     8.08136165     0.43302047    -0.57425945     3.05708933
O       3.92876198    -0.86039702     3.33508099    -2.06208772    -0.22019193    -0.59707774
O      -2.08319255     0.75684946     7.82561864     1.08779430     0.64539187     1.50901777
O      -0.02092600     2.67364001     3.12470900    -1.18100274     1.20921443    -0.83353884
O      -1.76786054    -2.52563855     8.29237864    -1.74289697    -0.89799539    -0.23772223
O       0.08799397    -1.11246102     3.36115101    -0.02328238    -0.45059679    -0.48730676
O       4.03328846     4.59780543     6.62924360    -2.19130370    -0.34277189     0.15398317
O       5.75389299     6.60176698     1.71784101    -0.29971746    -0.17971992    -0.80878914
O       3.79819644     1.16955544     6.24134461    -1.86436262     0.10091121     0.28396431
O       5.55273499     3.16269102     1.42128500     1.41282994     0.37311914     0.94061607
O      -0.04227454     4.69078944     6.53167364     2.42456069    -0.36226163     0.28397485
O       1.87101999     6.56933598     1.64469300     2.16904694     0.58441094     0.74539419
O      -0.02169055     0.89836146     6.41172561     0.28312870     0.63588650     0.15995122
O       1.86970901     2.86635499     1.60931898     0.16978080     0.91707813    -0.97711881
