# total energy = -4989.93954758 eV

CRYSTAL
PRIMVEC
        3.19303206     0.00000000     0.00000000
        0.00000000     4.52652641     0.00000000
        0.00000000    -0.00006192     4.77670607
PRIMCOORD
6 1
Ti      1.59651603     2.26323208     2.38835303     0.00000000     0.00000000     0.00000000
Ti      0.00000000     0.00000000     0.00000000     0.00000000     0.00000000     0.00000000
O       1.59651603     0.88214120     0.93090965     0.00000000    -0.03983617    -0.12704700
O       1.59651603     3.64432292     3.84579636     0.00000000     0.03983617     0.12704700
O       0.00000000     1.38106580     3.31926365    -0.00000000     0.03937312    -0.12673898
O       0.00000000     3.14539836     1.45744236    -0.00000000    -0.03937312     0.12673898
