# total energy = -4978.23607482 eV

CRYSTAL
PRIMVEC
        4.66753784     0.00000000     0.00000000
        0.00000000     2.77402270     0.00000000
        0.00000000    -0.00011074     6.32436064
PRIMCOORD
6 1
Ti      2.33376892     1.38695581     3.16218003     0.00000000     0.00000000     0.00000000
Ti      0.00000000     0.00000000     0.00000000     0.00000000     0.00000000     0.00000000
O       2.33376892     0.54059452     1.23252464    -0.00000000     0.10752846     2.83339222
O       2.33376892     2.23331710     5.09183542    -0.00000000    -0.10752846    -2.83339222
O       0.00000000     0.84631748     4.39470607    -0.00000000    -0.10773698     2.83270445
O       0.00000000     1.92759414     1.92965400    -0.00000000     0.10773698    -2.83270445
