# total energy = -19073.23469616 eV

CRYSTAL
PRIMVEC
        5.93400000     0.00000000     0.00000000
        0.00000000     9.29699974     0.00000000
        0.00000000     0.00000000     4.64899994
PRIMCOORD
22 1
Ti      4.34304400     7.18223103     2.26411402    -0.46893674    -0.66920029     0.77043135
Ti      4.47905298     2.35924898     2.24626302     0.18502951    -0.10353888    -0.51900385
Ti      1.33798102     7.05836100     2.58667200     1.18165683    -0.64438168     0.96219561
Ti      1.68847501     2.42392799     2.19532701    -0.78104872     0.83368617    -0.03445125
Ti      3.08944400     4.61803699     4.43155001    -1.78446453    -0.32884499    -0.96169141
Ti      2.95310698     9.22011902     0.05061300     0.18650789     0.70361915     0.09692137
Ti      5.79469600     4.65820101     0.00724899     2.73706117    -1.39972271    -1.52078700
Ti      5.89951601     9.25583002     0.18669199     0.22197627     0.09331925     0.47102807
O       4.51239501     5.45223899     0.87710002    -1.43908297     1.70734889     1.25878635
O       4.40264301     0.61309100     1.08746899     0.62994699     1.63021653     0.08407742
O       1.47589498     0.73455898     1.04106501    -0.07979704     1.45471297    -0.48058744
O       4.47648102     8.15560601     4.00177600    -0.27258280     0.65579610    -1.15549456
O       4.55251199     3.83840401     3.50259898    -0.19004085    -1.12921761    -0.39612950
O       1.54927398     8.13779703     4.08252099    -1.23437577     0.07309006    -1.00921596
O       1.54825299     3.96568098     3.45276000     0.30522708    -1.06015004     0.23962562
O       3.02893602     6.12514602     3.04705600    -0.88905618    -1.66431323     1.29420279
O       3.05982002     1.54742699     3.21347801    -0.64027434    -1.01722932     0.91809114
O       5.82885799     6.03826898     3.21533500     0.48868230     0.11698035     0.11448921
O       2.77506900     8.04671102     1.65399901     0.79044791    -0.39130636    -0.71698684
O       3.09417902     3.04371599     1.04436602    -0.26831400     0.51886809     0.49419089
O       5.93318899     7.96172801     1.57946402     0.65072948    -0.70993892     0.05988873
O       5.92611299     2.87440499     1.16715900     0.67070876     1.33020648     0.03041925
