# total energy = -19960.73345599 eV

CRYSTAL
PRIMVEC
        7.60600008     0.00000000     0.00000000
        0.00000000     7.60600008     0.00000000
       -1.89786986    -1.89786986     4.85670466
PRIMCOORD
24 1
Ti      3.71349199     6.72760702     1.29130801     1.45990686     0.52386401    -0.43552781
Ti      3.81741398     3.08752499     1.27335498    -0.54206794    -0.83240756    -0.38169995
Ti      0.09359801     6.59864700     1.16387699    -1.52169563     1.04077806     0.60043637
Ti      0.01003701     2.89897501     1.20304601     0.25671369    -1.60939908    -1.57022856
Ti      5.74871023     2.81021420     3.61346484    -0.91246582    -1.75057326    -0.71686908
Ti      5.77881724    -1.10074176     3.63415583    -0.34911274     1.79322016    -0.48754587
Ti      1.79602722     2.95707422     3.59740383     1.46602428    -1.17579394     0.02179499
Ti      1.88321922    -0.95397979     3.69857982    -0.22251646     0.41121288     1.00361018
O       3.72880098     4.88375202     0.65506000     0.36940698    -0.32794973     2.22752053
O       3.60955401     0.98782898     0.75078202     0.56566347    -0.95873181     0.74370858
O       0.13550901     4.68681998     0.64273202    -0.61354669     0.48689024     1.48313241
O       0.10589498     0.87215301     0.73259902    -0.19807658    -0.79279173     0.40771463
O       5.91266421     4.65825123     4.02340083    -0.42676857     0.08465129    -0.33180613
O       5.65517820     0.83970121     4.09632082    -0.13069976     0.64701115    -0.54082404
O       1.79334423     4.78055621     4.11211179     0.00882660     0.64599119    -0.98076772
O       1.79936421     1.05337621     4.30819281     0.55598635    -1.12881447    -2.85319280
O       3.73332624     2.82271824     3.20142282     0.49379237     0.37942323     0.48081010
O       3.76788622    -1.07728677     3.22124480     0.00637531     0.33509303     0.24960330
O       0.02624825     2.61622920     3.18464383    -1.22919166     0.50872046    -0.12098922
O       0.00099025    -0.97708478     3.18111681     0.73726822     0.15498333    -0.12103010
O       5.74138800     6.63904503     1.62002001    -0.39711809    -0.24735101    -0.09260371
O       5.69736601     2.86884302     1.63510600    -0.00888548     0.29228209    -0.02499627
O       1.88884200     6.41468398     1.61974600    -0.00189645     0.73734278     0.51341684
O       1.83216298     2.80840801     1.53944901     0.63407824     0.78234867     0.92633359
