# total energy = -19942.51505405 eV

CRYSTAL
PRIMVEC
        5.27862660     0.00000000     0.00000000
        2.40632920     5.07662480     0.00000000
        0.00000000     0.00000000     9.70864179
PRIMCOORD
24 1
Ti      3.33923666     3.00840313     3.60183683     2.86994380    -4.01189584     1.16155979
Ti      4.34571896     2.06822160     6.10680501    -2.86994380     4.01189584    -1.16155979
Ti      5.53281592     2.06822332     1.25244531    -6.14663628     0.68852394     1.52352163
Ti      2.15213981     3.00840160     8.45619669     6.14663628    -0.68852394    -1.52352163
Ti      2.13607218     0.47009081     1.25248422     2.86994380    -4.01189584    -1.16155979
Ti      5.54888348     4.60653408     8.45615778    -2.86994380     4.01189584     1.16155979
Ti      0.94897520     0.47008894     6.10676610     6.14663628    -0.68852394     1.52352163
Ti      6.73598051     4.60653594     3.60187580    -6.14663628     0.68852394    -1.52352163
O       2.51802801     1.78756587     4.95424559     0.31550456     1.29648748    -1.24835975
O       5.16692761     3.28905886     4.75439630    -0.31550456    -1.29648748     1.24835975
O       1.81594462     1.78758638     0.09995592     1.31279213    -0.71074497    -0.10869394
O       5.86901108     3.28903844     9.60868571    -1.31279213     0.71074497     0.10869394
O       3.96376311     0.75074644     0.09992439    -0.31550456    -1.29648748    -1.24835975
O       3.72119252     4.32587834     9.60871719     0.31550456     1.29648748     1.24835975
O       4.66584657     0.75072597     4.95427708    -1.31279213     0.71074497    -0.10869394
O       3.01910902     4.32589882     4.75436476     1.31279213    -0.71074497     0.10869394
O       1.65545050     3.08789101     2.62254636     0.43339611    -0.29050751    -0.18052596
O       6.02950507     1.98873373     7.08609553    -0.43339611     0.29050751     0.18052596
O       3.77374934     1.98868649     2.23180544     1.92941155    -0.54124416    -1.53173245
O       3.91120628     3.08793824     7.47683624    -1.92941155     0.54124416     1.53173245
O       0.45228599     0.54957854     2.23177442     0.43339611    -0.29050751     0.18052596
O       7.23266958     4.52704620     7.47686726    -0.43339611     0.29050751    -0.18052596
O       2.70804177     0.54962577     7.08612644    -1.92941155     0.54124416    -1.53173245
O       4.97691386     4.52699896     2.62251535     1.92941155    -0.54124416     1.53173245
