# total energy = -19017.06523464 eV

CRYSTAL
PRIMVEC
        7.60600008     0.00000000     0.00000000
        0.00000000     7.60600008     0.00000000
       -1.89786986    -1.89786986     4.85670466
PRIMCOORD
22 1
Ti      4.60840999     6.07562498     0.66975800     0.73255898    -5.09643332     0.95879763
Ti      4.59499323     3.48062023     3.52274581    -5.12129667    -1.95400647   -18.61362908
Ti      0.96228602     5.94854698     0.46021498    -1.44906554    11.10743794     4.70949449
Ti     -0.05077101     2.93833399     0.59622200     2.58238663    -6.61176830     7.64707813
Ti     -1.33983478     2.39571024     4.24476181   -17.79385130    38.53033024    34.51042952
Ti     -1.27002476     1.36504325     3.30428583    -3.14628633   -48.11149933   -52.12990546
Ti      0.28002822     2.49149223     3.94653979    26.10333662     4.00750619     2.11902148
Ti      0.37041122    -0.94332280     3.95428081     4.91697874     1.77356047     0.27091004
O       4.15267698     4.61106201     2.13498303     0.11109895     3.61084396    -2.77287845
O       3.85635402     0.25665499     0.28353502     0.59099168     1.05796203     0.72188710
O       1.11306000     4.36584402     1.14052102     3.73029412     3.02101314     2.22642807
O       0.48043399     1.09576199     0.38089401     1.41669919    -2.36693171     0.18753891
O       6.32937420     4.00220421     3.22610783     3.49840238     3.57568849     0.62887767
O       4.09799022     1.75409923     3.09743881     3.62837067    -2.71735057     0.13237844
O       0.98997220     4.88083123     4.84239481    -2.07221041    -1.40563933    -0.43654211
O       1.05693720     0.88118924     4.36620381    -1.58080866    -3.42407356    -0.86853414
O       2.94498924     3.07338024     4.13257984    -6.93743334     1.57054352     3.43549286
O       0.86436421     3.13922725     2.54844382     0.45410841    -2.80409423    -1.86881088
O       6.53581001     6.03506698     0.05131702     1.80355652     7.69897227    16.49641457
O       6.14799701     2.60222003     1.05723201    -7.89747719    -1.79432163     2.62006591
O       0.98402801     6.60200701     2.30249900    -1.00858681     0.13561186     0.35529548
O      -1.39364475    -0.58539175     3.72688779    -2.56176689     0.19664807    -0.32981018
