# total energy = -19959.75008226 eV

CRYSTAL
PRIMVEC
        7.60600008     0.00000000     0.00000000
        0.00000000     7.60600008     0.00000000
       -1.89786986    -1.89786986     4.85670466
PRIMCOORD
24 1
Ti      3.86739298     6.58373198     1.27774498    -1.13924595     1.88103520     0.15958149
Ti      3.66319999     2.93570202     1.15066402     0.83741812    -1.77922564     0.88986453
Ti      0.01861302     6.51480998     1.21795600     0.71630061    -1.56420909    -0.17314998
Ti      0.03769700     2.73425499     1.10135200    -1.63834611     1.71983571     1.18877853
Ti      5.64326124     2.85311524     3.52494581     2.31713122    -0.52994930     1.27124129
Ti      5.77827224    -1.08319376     3.67958580    -1.40904270    -0.10266856    -0.47705783
Ti      1.97908323     3.01667223     3.68056584    -2.83979221     1.18739244    -1.01863006
Ti      1.79384325    -0.81573477     3.70217479     1.86349847    -1.66651358    -0.55115730
O       4.00497901     4.77893598     0.66267301    -0.33422785    -0.10179747     1.26160351
O       3.82165899     0.97932902     0.94983501    -0.10118092     1.13686022    -0.82106616
O       0.06052602     4.69179297     0.71847602    -0.47003049     0.76028783     0.53481511
O       0.16521702     0.77989799     0.82189699    -0.65893002     0.89710271    -0.36399095
O       5.73080123     4.67108823     3.90321579    -0.97806883     2.26206486     1.89148005
O       5.79297220     0.96742825     4.03251882    -0.26072898    -1.70755457     0.18751808
O       1.84817324     4.94006823     4.05456583     0.57445202    -1.85750420     0.97956804
O       1.66147924     1.03480124     4.10723579     0.06888194    -0.06327050    -0.46756762
O       3.74297324     3.06790923     3.18553581    -0.72447055    -0.25197720    -0.24344345
O       3.79639924    -0.91360277     3.17939683     0.30245929     0.37163922     1.32927805
O      -0.07875978     3.24386623     3.25690283     1.30258511    -1.84004640    -0.62573424
O       0.00706420    -1.11394976     3.21440582    -0.27600134     0.85847495    -0.28493876
O       5.67495102     6.46677502     1.72223900     1.74915350     0.48741526    -0.75805714
O       5.66365901     2.95627199     1.73293299    -0.18938804    -0.94981394    -3.17481736
O       1.96985199     6.40013901     1.73161401    -1.27118601     0.70259431    -0.50188158
O       1.74594398     2.78280801     1.66997100     2.55876024     0.14982801    -0.23223601
