# total energy = -19074.77818205 eV

CRYSTAL
PRIMVEC
        7.60600008     0.00000000     0.00000000
        0.00000000     7.60600008     0.00000000
       -1.89786986    -1.89786986     4.85670466
PRIMCOORD
22 1
Ti      3.74500502     6.53311602     1.31500102    -0.05753565    -0.00436548    -0.27593681
Ti      3.74107699     2.77114901     1.20447002    -0.53210748     0.26948154    -0.57978963
Ti     -0.06084798     6.62801999     1.18250102     0.92967705     0.96746148    -0.59756265
Ti     -0.11294399     2.91481101     1.10522600     0.06819365    -0.31790160    -0.39899474
Ti      5.63833624     3.01765121     3.51670584     0.57682541     0.28037376     0.38327603
Ti     -1.36146675    -0.75111075     3.72548182    -2.31471696    -0.77899595     0.20146683
Ti      1.81267021     2.72193823     3.61689682     0.63772509    -0.60420818     0.40802471
Ti      1.98436521    -1.16430478     3.83558381    -1.44416758     2.27049859    -2.75192113
O       3.56491499     4.61537401     0.71000701     0.22283142     0.50274341     0.15534405
O       3.83377302     0.82723999     0.83166100     0.01052404     0.90133346     2.28069122
O       0.03891702     4.84523400     0.66804601    -0.25470951    -0.28205732    -0.04517944
O       7.17315902     0.93469398     0.59786202     0.99937300     1.70394989     1.22244945
O       5.96947224     4.93622524     4.08601584     0.13079181    -0.86567970    -1.18317069
O       5.42621824     1.07006022     3.94502481     1.66761222    -0.51092621     0.06518237
O       1.89219523     4.70669323     4.29052480     0.08052852    -2.47541482    -1.70190869
O       2.07088823     0.80696324     3.98408884    -0.30796608     0.70906835     0.27146900
O       3.74237422     2.91707525     3.15188183    -0.10859033     0.41425578    -0.12299699
O       0.06502022     2.94725624     3.08830082    -1.23054534    -0.45314116     0.29521212
O       5.64880098     6.73240798     1.87028100     0.62145746    -0.89404952     0.84451488
O       5.68855003     3.36756099     1.58154199    -0.46192225    -1.46081111     0.61276224
O       1.85082098     6.47387801     1.80298002     0.46561950     0.64074691     0.72609266
O       1.82197902     2.66491102     1.40722201     0.30110200    -0.01236187     0.19097493
