# total energy = -19068.13523236 eV

CRYSTAL
PRIMVEC
        5.17600016     0.00000000     0.00000000
        0.00000000     5.50899976     0.00000000
        0.00000000     0.00000000     9.26300011
PRIMCOORD
22 1
Ti      1.54812302     3.42766197     3.21464998    -0.07229071     0.05028874     2.09953997
Ti      3.94944498     2.41277102     5.87297698    -0.68035452     1.05500681     2.32883437
Ti      4.04080198     2.35803102     1.34719802     3.80270438    -1.14429071    -1.00704312
Ti      1.51740502     2.08752398     7.93308899    -1.80698431    -0.03222930     1.95428338
Ti      1.69173501     0.60511598     1.35900301    -2.42968336    -0.62430907    -2.87042948
Ti      3.35439098     5.41282598     7.92497898     1.64223130    -2.57049065    -0.69920405
Ti      0.79487498     0.03973899     6.03972798    -2.26020415    -0.86856165     0.96019014
Ti      3.97797901     5.25812302     3.56023701     0.91649732    -0.06761438     0.19918524
O       3.01342001     3.55482898     4.72205599    -0.80874568    -0.74034712    -1.57755621
O       0.92397100     2.28192999     0.45559002    -0.78501131     1.46154053    -0.49538080
O       4.64668501     4.11458400     6.54476501     2.79568749     1.14341191     0.51415629
O       3.51822198     0.61756001     0.25411700     1.89985645     1.73076290     2.30701110
O       1.48644201     0.15772800     8.60077701     0.17574782    -1.45589696     0.29026069
O       4.20994899     0.58423798     5.14868101    -0.33391341     1.99503127    -1.20893136
O       0.96580701     5.12129800     4.36326799     1.60265147    -0.53752685    -0.87963951
O       4.89021799     3.85190099     2.91125599     0.70999189    -3.18763277    -2.40014086
O       4.97513199     1.28272899     7.35816098     0.01613548     0.15545975    -1.22349152
O       2.56508797     1.87823501     2.28508500     0.43816679     1.60088306     3.18393321
O       3.16004503     2.94738102     7.71573800    -1.91206920     1.80672592     1.39208370
O       0.04921899     0.99668598     2.37059099    -1.55889436     0.20750919    -0.03495956
O       2.52811399     0.96896498     6.68580800    -1.66775440    -0.03597180    -2.24268079
O       2.51027902     4.64372299     2.23821699     0.31623501     0.05825068    -0.59002109
