# total energy = -4986.81906563 eV

CRYSTAL
PRIMVEC
        4.17257849     0.00000000     0.00000000
        1.22421967     3.98894691     0.00000000
       -2.69843674    -1.99450129     5.38744212
PRIMCOORD
6 1
Ti      0.91803706     2.99186311     1.34686021     0.00050214    -0.00050214     0.00000000
Ti      1.78032410    -0.99741768     4.04058110    -0.00050214     0.00050214     0.00000000
O       0.30609856     0.99723120     0.87757015    -0.00066540    -0.00118836    -1.38483807
O       2.39226242     0.99721414     4.50987116     0.00066540     0.00118836     1.38483807
O      -0.30606643    -0.99720745     3.57129103    -0.00118836    -0.00066540    -1.38483807
O       3.00442738     2.99165267     1.81615034     0.00118836     0.00066540     1.38483807
