# total energy = -4989.36926991 eV

CRYSTAL
PRIMVEC
        3.13096534     0.00000000     0.00000000
        0.24513473     4.89962491     0.00000000
       -0.00000135    -0.00006367     4.90728816
PRIMCOORD
6 1
Ti      1.68804924     2.44978046     2.45364397     0.00000000     0.00000000     0.00000000
Ti      0.00000000     0.00000000     0.00000000     0.00000000     0.00000000     0.00000000
O       1.61325547     0.95485220     0.95635812     0.05257574    -0.45961366    -0.46928769
O       1.76284296     3.94470872     3.95092977    -0.05257574     0.45961366     0.46928769
O       0.07479310     1.49490245     3.41000308    -0.05250323     0.45970467    -0.46940776
O       0.17034016     3.40465869     1.49728480     0.05250323    -0.45970467     0.46940776
