# total energy = -19073.25059469 eV

CRYSTAL
PRIMVEC
        7.60600008     0.00000000     0.00000000
        0.00000000     7.60600008     0.00000000
       -1.89786986    -1.89786986     4.85670466
PRIMCOORD
22 1
Ti      3.90015101     6.67427198     1.18870001    -0.62744582    -1.43991369     0.71114606
Ti      3.72542901     2.66866299     1.28917098     2.06741299     1.84690276     0.70482294
Ti      0.33100100     6.79092302     0.99641102    -1.14660959    -0.09187532     0.83145805
Ti      0.11509002     2.88067701     1.01021498    -1.75316082    -0.09730729     0.01288303
Ti      5.80859822     2.89184524     3.48521979    -2.11880268    -0.08435201    -0.24137654
Ti      6.00202023    -0.89143279     3.47719482    -0.80770259    -0.71791115     3.17218069
Ti      1.78992522     2.79220122     3.81795782     2.30463540    -1.41598751     0.02426531
Ti      1.05456623    -1.03465276     4.02944880     3.03726689     0.66663716    -3.35974248
O       3.83122498     4.72543801     0.91968799    -0.56470368     0.93339718    -0.53242707
O       4.07450702     0.87684400     0.63610900    -0.24990206    -0.47536913     3.07383544
O       0.12992302     4.73389998     0.78999401     0.45438814     1.05991376    -0.90398941
O       7.29470199     1.02961002     0.63288303     1.32726051    -0.36946046     0.53719235
O       5.57383022     4.76696223     4.03418181     1.04329234     0.14039977    -1.58008489
O       5.68934924     0.92793824     3.84786279     0.88163443     0.82600962     0.22109541
O       1.66244325     4.72737522     4.19081881    -0.39529080     0.10399371    -0.57977626
O       2.02849822     0.84989121     4.22902683    -2.26847616     0.91467389    -0.92417206
O       3.81445922     2.72691525     3.41261180    -1.22268393     0.41352070    -1.25041432
O       0.08463121     2.85745920     3.02128380    -0.93008149    -0.28668659     1.23819283
O       5.98230500     6.71913701     1.74308499    -1.32554532    -0.57203827    -2.38313095
O       5.57745799     2.99281099     1.54159901     1.52669386    -0.34074560     1.53166663
O       1.95689800     6.74772099     2.10593701    -0.24018200    -0.16651833    -0.36327490
O       1.88093900     2.86071898     1.53131900     1.00800240    -0.84728294     0.05964987
