# total energy = -19930.50957685 eV

CRYSTAL
PRIMVEC
        7.26675640     0.00000000     0.00000000
        0.00002557     4.16447577     0.00000000
        0.00000000     0.00000000    10.99399507
PRIMCOORD
24 1
Ti      2.63386493     2.46786462     4.07869391     0.22257791     0.31591388     1.47710291
Ti      4.63291721     1.69661150     6.91530162    -0.22257791    -0.31591388    -1.47710291
Ti      6.26711860     1.69661297     1.41825996     0.22203412    -0.31593522    -1.47683089
Ti      0.99966355     2.46786326     9.57573568    -0.22203412     0.31593522     1.47683089
Ti      2.63385226     0.38562679     1.41830403     0.22257791     0.31591388    -1.47710291
Ti      4.63292988     3.77884944     9.57569161    -0.22257791    -0.31591388     1.47710291
Ti      0.99965087     0.38562514     6.91525756    -0.22203412     0.31593522    -1.47683089
Ti      6.26713127     3.77885103     4.07873797     0.22203412    -0.31593522     1.47683089
O       2.29998336     1.46638278     5.61015171     1.74333972     0.48804595    -0.64909683
O       4.96679879     2.69809328     5.38384381    -1.74333972    -0.48804595     0.64909683
O       1.33345546     1.46639956     0.11318932    -1.74322684     0.48814366    -0.64936885
O       5.93332674     2.69807655    10.88080586     1.74322684    -0.48814366     0.64936885
O       4.96678612     0.61585539     0.11315366    -1.74333972    -0.48804595    -0.64909683
O       2.29999603     3.54862072    10.88084152     1.74333972     0.48804595     0.64909683
O       5.93331407     0.61583861     5.61018737     1.74322684    -0.48814366    -0.64936885
O       1.33346796     3.54863750     5.38380810    -1.74322684     0.48814366     0.64936885
O       0.26403361     2.53307027     2.96975244    -1.41025961     0.53428135     0.76036573
O       7.00274854     1.63140585     8.02424308     1.41025961    -0.53428135    -0.76036573
O       3.89742078     1.63136691     2.52728024    -1.40987831    -0.53407000    -0.76128567
O       3.36936137     2.53310921     8.46671506     1.40987831     0.53407000     0.76128567
O       0.26402094     0.45083232     2.52724515    -1.41025961     0.53428135    -0.76036573
O       7.00276121     3.71364379     8.46675015     1.41025961    -0.53428135     0.76036573
O       3.36934870     0.45087126     8.02427811     1.40987831     0.53407000    -0.76128567
O       3.89743345     3.71360485     2.96971735    -1.40987831    -0.53407000     0.76128567
