# total energy = -19921.89488531 eV

CRYSTAL
PRIMVEC
        7.56953835     0.00000000     0.00000000
        0.00002856     4.83376652     0.00000000
        0.00000000     0.00000000    11.56079696
PRIMCOORD
24 1
Ti      2.74361029     2.86448554     4.28897324     0.51543696    -0.28195628     1.81238826
Ti      4.82595613     1.96928092     7.27182385    -0.51543696     0.28195628    -1.81238826
Ti      6.52824923     1.96928254     1.49137912     0.51486540     0.28204806    -1.81322181
Ti      1.04131725     2.86448410    10.06941803    -0.51486540    -0.28204806     1.81322181
Ti      2.74359625     0.44760235     1.49142549     0.51541947    -0.27944096    -1.81299427
Ti      4.82597016     4.38616424    10.06937172    -0.51541947     0.27944096     1.81299427
Ti      1.04130316     0.44760059     7.27177747    -0.51492839    -0.27950550    -1.81346015
Ti      6.52826326     4.38616599     4.28901955     0.51492839     0.27950550     1.81346015
O       2.39581660     1.70205131     5.89938622     0.93763950     1.22464954    -1.56095639
O       5.17374988     3.13171508     5.66141086    -0.93763950    -1.22464954     1.56095639
O       1.38901668     1.70207083     0.11902489    -0.93757240     1.22446391    -1.56138833
O       6.18054986     3.13169562    11.44177182     0.93757240    -1.22446391     1.56138833
O       5.17373584     0.71483176     0.11898737    -0.93765185    -1.22429499    -1.56059772
O       2.39583063     4.11893464    11.44180934     0.93765185     1.22429499     1.56059772
O       6.18053576     0.71481230     5.89942368     0.93756597    -1.22469531    -1.56168478
O       1.38903059     4.11895416     5.66137334    -0.93756597     1.22469531     1.56168478
O       0.27503611     2.94017081     3.12285968    -2.06565281     0.70667542     0.47046063
O       7.29453037     1.89359558     8.43793734     2.06565281    -0.70667542    -0.47046063
O       4.05981399     1.89355065     2.65757558    -2.06499513    -0.70641805    -0.47041204
O       3.50975242     2.94021581     8.90322125     2.06499513     0.70641805     0.47041204
O       0.27502201     0.52328749     2.65753868    -2.06512959     0.70645765    -0.46990733
O       7.29454440     4.31047890     8.90325816     2.06512959    -0.70645765     0.46990733
O       3.50973839     0.52333249     8.43797418     2.06490976     0.70650470    -0.47095814
O       4.05982803     4.31043391     3.12282278    -2.06490976    -0.70650470     0.47095814
