# total energy = -19073.52040792 eV

CRYSTAL
PRIMVEC
        5.17600016     0.00000000     0.00000000
        0.00000000     5.50899976     0.00000000
        0.00000000     0.00000000     9.26300011
PRIMCOORD
22 1
Ti      1.60596400     3.28013699     3.35635201     0.30201886     0.91964409    -1.50054598
Ti      3.76253698     2.09435401     5.81440600    -0.46743058     0.32835159     0.40320029
Ti      4.46036302     2.24538400     1.23682900    -1.67549728    -0.04893660     0.06134037
Ti      0.84989301     3.08676102     7.96280001     0.57504595     1.16962406     0.52416148
Ti      1.75890898     0.55741103     1.35261801     0.28851053     0.13024108    -1.34536288
Ti      3.30213399     5.11670802     8.13352799    -1.24176821    -0.15307145     1.81229956
Ti      1.58761203     0.33263701     5.72803099    -2.72509243    -1.89933040     2.13010088
Ti      4.12757202     4.97100801     3.44169099     1.44176746     0.60698163     0.50966303
O       3.06403597     3.22519802     4.53324798     0.63323878     0.46304377     0.12312272
O       0.83221002     1.90405198     0.34686600     0.50872766     0.56273216    -2.48766124
O       4.37295199     3.71472597     8.81673800     0.38178479    -0.56320807    -0.24669101
O       3.37038499     0.86690801     0.35266901     1.02200823    -0.12298928    -0.90807618
O       1.69182401     4.75497198     9.14532998    -0.47624587    -0.48588983     0.16760051
O       3.09620101     0.46309598     4.91105302     2.88146878     0.12615997    -2.57801036
O       0.60608300     4.70345101     4.36933802     0.90547422     0.24998100     2.49570572
O       5.07818503     3.66667298     2.39922298    -0.06140208    -1.68301776    -0.62891264
O       0.31246800     1.71738603     6.40916402     0.70621828     0.58532702     0.34233943
O       2.70619198     2.20367399     2.13904901    -1.56976448     0.05339206     1.20606149
O       2.18647700     4.20822398     6.88750898    -1.01499914    -0.65574931    -0.93432149
O       5.08524002     0.73937698     2.33492498     0.61426840     0.70726986     0.35730428
O       2.78081301     1.26557502     7.16509198    -0.17500246     0.56028241     0.17839066
O       2.52354798     4.83032301     2.51888900    -0.85332940    -0.85083749     0.31829163
