# total energy = -19932.08586363 eV

CRYSTAL
PRIMVEC
        6.10738796     0.00000000     0.00000000
        0.00003347     6.50010769     0.00000000
        0.00000000     0.00000000    10.93088151
PRIMCOORD
24 1
Ti      2.21365422     3.85195780     4.05527915     0.03556994    -0.84083795     0.61984178
Ti      3.89376721     2.64814995     6.87560266    -0.03556994     0.84083795    -0.61984178
Ti      5.26724128     2.64815218     1.41011808     0.03738797     0.84068214    -0.61992997
Ti      0.84018015     3.85195582     9.52076387    -0.03738797    -0.84068214     0.61992997
Ti      2.21363761     0.60190408     1.41016191     0.03556994    -0.84083795    -0.61984178
Ti      3.89378382     5.89820385     9.52072003    -0.03556994     0.84083795     0.61984178
Ti      0.84016354     0.60190166     6.87555883    -0.03738797    -0.84068214    -0.61992997
Ti      5.26725789     5.89820627     4.05532299     0.03738797     0.84068214     0.61992997
O       1.93303863     2.28879848     5.57794528     1.36139089     1.25118205     0.02913935
O       4.17438280     4.21130933     5.35293654    -1.36139089    -1.25118205    -0.02913935
O       1.12071463     2.28882466     0.11253956    -1.36116489     1.25155563     0.02831351
O       4.98670687     4.21128315    10.81834195     1.36116489    -1.25155563    -0.02831351
O       4.17436618     0.96125543     0.11250409    -1.36139089    -1.25118205     0.02913935
O       1.93305525     5.53885232    10.81837742     1.36139089     1.25118205    -0.02913935
O       4.98669025     0.96122925     5.57798075     1.36116489    -1.25155563     0.02831351
O       1.12073111     5.53887856     5.35290107    -1.36116489     1.25155563    -0.02831351
O       0.22191587     3.95373398     2.95270386     0.47976211    -0.27970605     0.32210715
O       5.88550556     2.54637377     7.97817795    -0.47976211     0.27970605    -0.32210715
O       3.27561474     2.54631319     2.51277179     0.47960528     0.27999350    -0.32228559
O       2.83180669     3.95379456     8.41810984    -0.47960528    -0.27999350     0.32228559
O       0.22189926     0.70368007     2.51273689     0.47976211    -0.27970605    -0.32210715
O       5.88552217     5.79642767     8.41814474    -0.47976211     0.27970605     0.32210715
O       2.83179008     0.70374065     7.97821280    -0.47960528    -0.27999350    -0.32228559
O       3.27563135     5.79636709     2.95266896     0.47960528     0.27999350     0.32228559
