# total energy = -19074.32132176 eV

CRYSTAL
PRIMVEC
        7.60600008     0.00000000     0.00000000
        0.00000000     7.60600008     0.00000000
       -1.89786986    -1.89786986     4.85670466
PRIMCOORD
22 1
Ti      4.08945702     6.61853798     1.15586499    -0.19428394    -0.53043446     0.83893610
Ti      3.53842999     2.68308900     1.19823002     1.56634619     0.18710285    -0.87823363
Ti      0.18588399     6.76728399     1.07865199    -1.76797681    -0.07436893    -0.39053709
Ti     -0.18260600     2.95629602     1.12270198    -1.16494233    -0.08736535     0.98433693
Ti      5.54798123     2.78918422     3.62090481    -0.07018266     0.93244613    -1.16567304
Ti     -1.27540576    -0.76035479     3.76578279    -0.82998712    -1.92552661     0.42722109
Ti      1.81935023     2.85974625     3.80336083    -0.30697312    -2.48661943     0.16077962
Ti      1.49960720    -1.03467175     3.67073081     1.82945576     1.13942824     1.24445836
O       3.76556800     4.59916399     0.88102001    -0.57242496     1.45056321    -0.53126956
O       4.00049000     0.78233898     0.71841299    -1.24739919     0.23481920     0.99943085
O       7.21461699     4.86818400     0.72561700     0.69994041    -0.96888973    -0.56226010
O      -0.19792198     0.96663300     0.67116202     0.28858587     0.52260982     1.38971906
O      -1.52377579     4.82793822     4.10410782     0.01994585     0.23087075    -1.38948586
O       5.42299221     0.88106425     3.92337183     0.86579566     2.19799140     0.54436753
O       2.36575024     4.56876821     4.19339881    -0.70854821     1.97351910    -0.91600084
O       2.11711424     0.80233823     4.09485982    -1.78468384    -0.43805906    -0.73607497
O       3.59135825     2.71942522     3.12208783     0.76918179     0.08481147     0.15805734
O       0.06626723     3.16194620     3.15766881    -0.32690046    -1.38506304    -0.30102538
O       5.74491698     6.72198499     1.99945301     0.26553875    -0.39534300    -0.71840351
O       5.49947103     2.86521001     1.62484901     1.91088366    -0.31077115     1.15501376
O       1.87791501     6.66972101     1.85517098     1.37586415    -0.30265701    -0.54311438
O       1.72547498     2.78902499     1.20047701    -0.61723519    -0.04906438     0.22975798
