# total energy = -4889.36244466 eV

CRYSTAL
PRIMVEC
        5.81881676     0.00000000     0.00000000
       -0.00000720     1.93960559     0.00000000
       -2.90944541    -0.96992900     6.60098197
PRIMCOORD
6 1
Ti     -0.00024903     1.45475045     1.65024509    -0.05660723    -0.03752501   106.78765570
Ti      2.90961302    -0.48507391     4.95073591     0.05660723     0.03752501  -106.78765570
O       0.00006143     0.48488037     1.07524585     0.05582767     0.03765742  -103.13778880
O       2.90930240     0.48479610     5.52573521    -0.05582767    -0.03765742   103.13778880
O      -0.00002669    -0.48496183     4.37573667    -0.00105981     0.00012264    -0.53044578
O       2.90939041     1.45463825     2.22524438     0.00105981    -0.00012264     0.53044578
