# total energy = -19960.54996846 eV

CRYSTAL
PRIMVEC
        5.93400000     0.00000000     0.00000000
        0.00000000     9.29699974     0.00000000
        0.00000000     0.00000000     4.64899994
PRIMCOORD
24 1
Ti      4.51370700     6.95752898     2.18704401    -1.30037036     1.10226036     0.43198920
Ti      4.39867000     2.32282798     2.31676901     0.75497233     0.34756443     0.49629251
Ti      1.46632201     6.89261099     2.39718998     1.00957746     1.24085058     0.10489591
Ti      1.47218101     2.28013597     2.38994401    -0.68770736     0.15360573     0.06503788
Ti      2.96970299     4.71810499     0.00619402     0.45706364    -0.51173174    -0.61828035
Ti      2.92143699     0.07213802     0.06042903     0.72091343    -1.85892987    -0.58027763
Ti      0.04978600     4.60192301     4.60234302    -0.52983668    -0.79745262    -0.04213988
Ti      5.90880699     0.01087898     0.04483999    -0.71250540    -0.80748764    -1.32431145
O       4.43831601     5.50505300     0.82228303     0.37505184     1.05047601     1.29518084
O       4.44922601     0.90984001     0.99857202     0.23239284    -0.33674599    -0.15153265
O       1.45732499     5.60671398     0.81149802     0.07630291    -0.22941139     0.28645879
O       1.48660500     0.79526699     0.92579200    -0.30500237     1.26601218     1.05970344
O       4.49452803     8.43717599     3.70715101     0.29391911    -0.08718897     0.16274035
O       4.42307798     3.90979299     3.67479902    -0.30362117    -1.59912340    -0.20553458
O       1.48947002     8.38708502     3.65025800    -0.31235110     0.21876625     0.65533330
O       1.52327100     3.76232700     3.67730102     0.12378247     0.23614589     0.49855483
O       3.01811403     6.17023102     3.18232000    -0.17010039    -0.91926202     0.46502969
O       2.93505902     1.45768599     3.38816799     0.60628075     0.61325487    -1.04610513
O       5.83050002     5.88665298     3.17746099     0.84579915     1.89149779    -1.07709131
O       5.89481400     1.54045302     3.34163998     0.46465328    -0.56138953     0.08821355
O       2.91505400     7.85601702     1.33569497     0.77354907    -0.52917154     0.46132370
O       2.99962701     3.09357899     1.37157102    -0.48484802     0.97841542    -0.17970141
O       0.09593502     7.93442701     1.43485401    -0.98364607    -1.00405704     0.14677559
O       0.11385899     3.23008698     1.49340302    -0.94426961     0.14310226    -0.99255520
