# total energy = -19072.61092905 eV

CRYSTAL
PRIMVEC
        5.17600016     0.00000000     0.00000000
        0.00000000     5.50899976     0.00000000
        0.00000000     0.00000000     9.26300011
PRIMCOORD
22 1
Ti      1.42126399     3.20787799     3.60556502     0.94091226    -0.45367569    -0.74774984
Ti      4.08406201     3.01372900     5.91843801     0.11033713    -0.39434438    -0.07366728
Ti      4.12564301     2.14651703     1.41960598    -0.13251625    -1.22506426     0.73092530
Ti      1.28684800     3.01708398     8.09631397    -0.16632987    -0.48668456     0.69827177
Ti      1.55025698     0.44755399     1.38395102     0.17939930     1.40608156    -0.28236560
Ti      3.35630300     5.27934599     8.01958100    -1.10440389     0.35004426     1.56944540
Ti      1.56067701     0.21022101     5.75563801     1.93971294     1.55510790    -0.98605931
Ti      4.06638098     4.77097398     3.42711502    -0.87737154     0.76004614     0.97384656
O       3.18574600     3.03086497     4.32374898     0.15136167     0.71508190     0.76408972
O       0.71197597     1.80938799     0.24661702    -1.04334017     0.37030816    -1.75968680
O       4.76620900     4.00570297     7.58138800     1.05351068    -0.38530103    -0.06879298
O       3.23694501     0.85898200     0.49509898    -0.00970489    -1.53335687    -2.94409522
O       2.07863200     4.20299899     0.00020802     0.23378433     0.45149462    -0.51936020
O       3.31007302     0.22780001     4.99625098    -1.16866349    -0.09852728    -0.79146298
O       0.55609999     4.55662301     4.61231801    -0.85270668     0.74378005     1.21126849
O       5.16935099     3.36307499     2.29667800    -0.67283481     1.27341593     1.02644184
O       0.37036100     1.99613099     5.41438297     1.32871293    -0.52323769     0.24376227
O       2.28972599     2.01643002     2.35655197     0.49460150    -0.59067800    -0.75400636
O       2.36787102     4.24970301     6.74684399    -0.86506675    -1.70163384     0.18837991
O       4.95977199     0.59515099     2.27636500    -0.08528558    -0.20598066     0.91913347
O       2.49152498     1.28356001     7.28419099    -0.54706668     1.47109656    -0.43238181
O       2.22294901     4.84383999     2.64046700     1.09295785    -1.49797257     1.03406362
