# total energy = -19961.22069142 eV

CRYSTAL
PRIMVEC
        7.60600008     0.00000000     0.00000000
        0.00000000     7.60600008     0.00000000
       -1.89786986    -1.89786986     4.85670466
PRIMCOORD
24 1
Ti      3.65024700     6.75461702     1.29295502     0.98997664    -1.40246196     0.25903385
Ti      3.81850499     2.93842999     1.23738802     0.03843672     0.90171964    -1.01249026
Ti      0.09721399     6.55395999     1.17624900    -2.10199434    -0.04197302    -0.40526926
Ti      0.06738400     2.73024102     1.08233999    -0.43406614     0.26089096     1.52734152
Ti      5.72226724     2.76604420     3.59592880     0.85737452     0.29233274    -0.03837939
Ti      5.70940125    -1.07436978     3.55477681     0.10914800     0.03188940    -0.40114084
Ti      1.95805822     3.00190522     3.61282882    -0.96620961    -0.90990603     1.43345842
Ti      1.81720521    -0.92210078     3.72209583     0.09924051     0.84720786     0.25328564
O       3.60126698     4.81225298     0.79723701     0.83242607     0.01701171    -0.05211320
O       3.75962899     0.96590702     0.92854002    -0.15461232     0.15552352    -0.36792448
O       0.18041002     4.65222300     0.75107598    -0.45283006    -0.06069657    -0.52752783
O       0.12600298     0.83613699     0.82105502    -0.14272662     1.43872893    -0.47764558
O       5.78653820     4.71886023     4.02975181    -0.17700663    -0.26315611     0.10704303
O       5.60465823     0.84167822     3.98416779    -0.07291137     0.59975014     0.38733144
O       1.72546021     4.82052624     4.19689382     0.23655598     0.00832601    -0.95296920
O       1.91866822     0.97575723     4.15634683     0.12960910     0.15645091    -0.67042851
O       3.82806024     3.04685523     3.22360583    -0.29342417    -0.24622950     1.07684859
O       3.68021822    -1.01204779     3.24462681     1.10271519     0.01434933    -0.06840011
O      -0.03617477     2.88539923     3.12984382     0.27351714    -0.44331646    -0.08129806
O       0.00138824    -0.77879577     3.17714983     0.23047789    -0.47139754     0.91530921
O       5.82966001     6.49916602     1.66344900    -1.92714409     0.05290818    -0.15175582
O       5.63949498     2.84620201     1.61785900     1.56306804    -0.20519468    -0.33686735
O       1.82277400     6.62155201     1.66726098     1.73197132     0.10399705     0.54230217
O       1.96356098     2.97385899     1.73534302    -1.47159227    -0.83675452    -0.95774400
