# total energy = -19943.76505103 eV

CRYSTAL
PRIMVEC
        6.37652685     0.00000000     0.00000000
        0.00002965     5.55263436     0.00000000
        0.00000000     0.00000000    10.47987257
PRIMCOORD
24 1
Ti      2.31120185     3.29048587     3.88795811     0.26610696    -0.49568882     0.46900050
Ti      4.06535471     2.26214826     6.59191488    -0.26610696     0.49568882    -0.46900050
Ti      5.49935479     2.26215005     1.35193651     0.26665949     0.49576235    -0.46895962
Ti      0.87720177     3.29048425     9.12793660    -0.26665949    -0.49576235     0.46895962
Ti      2.31118726     0.51416880     1.35197853     0.26610696    -0.49568882    -0.46900050
Ti      4.06536930     5.03846550     9.12789458    -0.26610696     0.49568882     0.46900050
Ti      0.87718718     0.51416677     6.59187286    -0.26665949    -0.49576235    -0.46895962
Ti      5.49936938     5.03846747     3.88800013     0.26665949     0.49576235     0.46895962
O       2.01822147     1.95517687     5.34779892     0.93348820     1.03444312    -0.49248239
O       4.35833509     3.59745726     5.13207407    -0.93348820    -1.03444312     0.49248239
O       1.17010010     1.95519931     0.10789618    -0.93324574     1.03454673    -0.49307118
O       5.20645651     3.59743488    10.37197651     0.93324574    -1.03454673     0.49307118
O       4.35832050     0.82114002     0.10786216    -0.93348820    -1.03444312    -0.49248239
O       2.01823605     4.73149411    10.37201053     0.93348820     1.03444312     0.49248239
O       5.20644187     0.82111764     5.34783294     0.93324574    -1.03454673    -0.49307118
O       1.17011457     4.73151655     5.13204005    -0.93324574     1.03454673     0.49307118
O       0.23169189     3.37742701     2.83087514    -0.59515635     0.00767552     0.11832658
O       6.14486467     2.17520712     7.64899785     0.59515635    -0.00767552    -0.11832658
O       3.41996170     2.17515551     2.40909470    -0.59519003    -0.00753899    -0.11847545
O       2.95659486     3.37747861     8.07077811     0.59519003     0.00753899     0.11847545
O       0.23167724     0.60110977     2.40906121    -0.59515635     0.00767552    -0.11832658
O       6.14487931     4.95152436     8.07081160     0.59515635    -0.00767552     0.11832658
O       2.95658022     0.60116137     7.64903128     0.59519003     0.00753899    -0.11847545
O       3.41997634     4.95147275     2.83084165    -0.59519003    -0.00753899     0.11847545
