# total energy = -19946.18401788 eV

CRYSTAL
PRIMVEC
        4.87699230     0.00000000     0.00000000
        1.27770983     5.03087762     0.00000000
        0.00000000     0.00000000     8.79881533
PRIMCOORD
24 1
Ti      2.52484486     2.98129357     3.26429790     2.46558574    -1.47195145     0.72964618
Ti      3.62985741     2.04958438     5.53451793    -2.46558574     1.47195145    -0.72964618
Ti      4.72663154     2.04958612     1.13507489    -4.31505087    -0.03952841     1.97723049
Ti      1.42807075     2.98129202     7.66374104     4.31505087     0.03952841    -1.97723049
Ti      1.88599004     0.46585479     1.13511016     2.46640490    -1.47241630    -0.73228490
Ti      4.26871225     4.56502335     7.66370576    -2.46640490     1.47241630     0.73228490
Ti      0.78921584     0.46585286     5.53448265     4.31479093     0.03822409     1.98191272
Ti      5.36548645     4.56502523     3.26433318    -4.31479093    -0.03822409    -1.98191272
O       1.99350221     1.77145764     4.48996832    -1.30377733    -0.46327594    -0.83132024
O       4.16120001     3.25942031     4.30884750     1.30377733     0.46327594     0.83132024
O       1.34483435     1.77147795     0.09058876     1.41378228    -1.05510939    -0.33192363
O       4.80986798     3.25940010     8.70822682    -1.41378228     1.05510939     0.33192363
O       3.52234518     0.74398139     0.09056021     1.30330476     0.46272238    -0.83120634
O       2.63235709     4.28689656     8.70825537    -1.30330476    -0.46272238     0.83120634
O       4.17101314     0.74396113     4.48999687    -1.41341666     1.05493507    -0.33156547
O       1.98368908     4.28691688     4.30881896     1.41341666    -1.05493507     0.33156547
O       0.95436796     3.06006507     2.37677967    -0.60606503    -1.44257041    -1.88026541
O       5.20033426     1.97081289     6.42203616     0.60606503     1.44257041     1.88026541
O       3.11622069     1.97076597     2.02265625     1.19394722    -2.02051580    -2.09528967
O       3.03848159     3.06011203     6.77615943    -1.19394722     2.02051580     2.09528967
O       0.31551313     0.54462615     2.02262814    -0.60640648    -1.44294991     1.88061071
O       5.83918915     4.48625185     6.77618753     0.60640648     1.44294991    -1.88061071
O       2.39962675     0.54467306     6.42206421    -1.19426989     2.02077933    -2.09488807
O       3.75507552     4.48620489     2.37675157     1.19426989    -2.02077933     2.09488807
