# total energy = -39040.44558335 eV

CRYSTAL
PRIMVEC
        7.60629642     0.00000000     0.00000000
       -0.00001693     7.60629642     0.00000000
       -3.80320786    -3.80321633     9.70732590
PRIMCOORD
46 1
Ti      1.88566716     4.81782560     6.13546934    -0.01064591     0.01583080     0.01283932
Ti      3.78727231     6.71946480     1.28180869    -0.01064154     0.01602081     0.01291106
Ti      1.92384508     0.89509569     6.05601029    -0.00024117    -0.02259975     0.01389528
Ti      3.82544134     2.79668105     1.20237386    -0.00029928    -0.02246656     0.01377058
Ti     -1.88290235     4.73360227     6.08814905     0.00479588     0.00461462    -0.00389162
Ti      0.01870661     6.63522391     1.23447811     0.00479665     0.00457734    -0.00391348
Ti     -1.92701497     0.96685110     6.01806314    -0.00399755     0.00471900    -0.00615471
Ti     -0.02539534     2.86847143     1.16442737    -0.00404280     0.00477583    -0.00632440
Ti      3.80691195     0.96897752     8.47812834    -0.00573588     0.00640873     0.00841934
Ti      5.70851951     2.87058327     3.62447457    -0.00581661     0.00635526     0.00833783
Ti      3.81102368    -2.86764469     8.50971528     0.00640899     0.00066334     0.00314523
Ti      5.71262043    -0.96605985     3.65605711     0.00650155     0.00071631     0.00299765
Ti     -0.00335437     0.95957680     8.35294502    -0.01015535    -0.00514067     0.00910762
Ti      1.89825120     2.86116842     3.49933197    -0.01010701    -0.00517923     0.00911816
Ti      0.00052253    -2.86968778     8.58315584     0.00085618     0.00656609     0.01115396
Ti      1.90212174    -0.96808435     3.72950926     0.00075848     0.00650669     0.01116553
O       1.89330745    -0.95188994     5.69454877    -0.00377001    -0.00202449    -0.01037903
O       3.79491754     0.94974131     0.84087030    -0.00381166    -0.00227620    -0.01021654
O      -1.89958735     2.85891732     5.60972501    -0.01051376    -0.00076567     0.00094951
O       0.00202257     4.76053248     0.75604580    -0.01055413    -0.00074948     0.00100376
O      -1.89658617    -0.95450436     5.67372727     0.00118631     0.00495272    -0.00925238
O       0.00501959     0.94712343     0.82005911     0.00120405     0.00489255    -0.00916444
O       3.84127298     2.85322628     8.93517986     0.00307067     0.00753668     0.00018126
O       5.74288146     4.75481846     4.08151090     0.00306861     0.00759427     0.00024837
O       3.77647176    -0.95023290     8.87615833    -0.01081869    -0.00344451    -0.01104932
O       5.67807581     0.95136288     4.02247761    -0.01081818    -0.00350596    -0.01097861
O      -0.03376060     2.73720492     9.02185052    -0.00853247     0.00192396    -0.00828024
O       1.86784355     4.63879296     4.16819776    -0.00852501     0.00213530    -0.00820131
O       0.02305484    -0.86177602     8.92283017     0.00712273    -0.00566594    -0.02878248
O       1.92466831     1.03978482     4.06914678     0.00711527    -0.00564692    -0.02890718
O       1.91434910     1.01018760     8.04110931     0.01207750     0.01052739     0.00182214
O       3.81595098     2.91177294     3.18746013     0.01200577     0.01047751     0.00182934
O       1.88135695    -2.89991712     8.14643545    -0.00395102    -0.01922517    -0.00312621
O       3.78296265    -0.99834032     3.29275166    -0.00394150    -0.01919304    -0.00304470
O      -1.91787901     0.92490983     8.00465708    -0.00224020    -0.00640745    -0.00108115
O      -0.01627241     2.82649419     3.15100384    -0.00215587    -0.00639948    -0.00116908
O      -1.88345637    -2.83313997     8.10033540     0.00666970    -0.00865254    -0.01132777
O       0.01814796    -0.93155431     3.24665910     0.00663216    -0.00864508    -0.01130669
O       3.78089476     4.63854808     6.50722256     0.00627735     0.01255830     0.00619405
O       5.68249061     6.54015848     1.65353877     0.00635680     0.01256164     0.00626964
O       3.78213830     1.08664701     6.42099645    -0.00434979    -0.00388545     0.00997691
O       5.68372904     2.98828643     1.56734518    -0.00411557    -0.00390628     0.00996740
O       0.01839651     4.62261193     6.50884674     0.01612494     0.00397981     0.01479259
O       1.92000373     6.52422099     1.65516837     0.01609151     0.00401067     0.01472626
O       0.02135030     1.07999676     6.40230359     0.01036926    -0.00252328     0.00082995
O       1.92296166     2.98163896     1.54864822     0.01029084    -0.00260273     0.00089809
