# total energy = -19074.48900233 eV

CRYSTAL
PRIMVEC
        5.17600016     0.00000000     0.00000000
        0.00000000     5.50899976     0.00000000
        0.00000000     0.00000000     9.26300011
PRIMCOORD
22 1
Ti      1.70175598     3.38731798     3.32427799     0.71228866     0.16004892    -0.13313151
Ti      3.58702100     2.25225601     5.89591099     0.35095186     0.00983062    -0.69551709
Ti      4.42211901     2.21816202     1.18171900     0.20683581     0.78375584    -1.42738136
Ti      0.78576800     3.28954999     8.10537402    -0.14452510     0.24775031     0.76382927
Ti      1.80988298     0.59678001     1.34416398    -0.03888178     0.16133036    -2.06574769
Ti      3.21556599     5.04706401     8.08750899     0.73215275    -0.98824423     0.75868603
Ti      0.81430298     0.27614702     6.03147599    -0.05342549     0.45433544    -2.10914484
Ti      4.23653401     4.93123399     3.39495998     1.43784961     0.32751341     0.75004866
O       3.39636500     3.41596202     4.33083599     0.52406327    -0.29265413     1.83193148
O       0.94433501     2.10094899     0.19666402    -0.43465389    -1.32846044    -0.09910706
O       4.20823599     3.68611098     9.08822498     1.10577532    -0.49534352    -0.06986230
O       3.40899302     0.80311702     0.14165302     1.50273656     1.18665454    -0.47554293
O       1.73148998     4.68342298     9.15382899    -1.89455072     0.55267426    -0.27346880
O       4.51999299     0.85250000     4.72877299    -1.10479187     0.44493497     0.20628277
O       0.87771498     4.73746298     4.34192199     0.77764561    -0.97339276     1.71784311
O       0.13213498     3.57731399     2.36354299    -1.65185366    -1.09039626    -0.44194220
O       0.18096603     1.91426902     6.76397700    -0.67641841     0.49236772     0.41620571
O       2.69923801     2.15429403     1.97149001    -0.24970743     0.33433455     2.07269892
O       2.50402103     3.39157399     7.27749399    -0.19313774    -1.05922393    -2.28246297
O       0.12932801     0.67278902     2.11805300    -0.87759934     0.46911851     0.36674898
O       2.68293501     0.56914601     6.49559597    -1.09904905     0.28318655     0.40998569
O       2.57779998     4.76494300     2.34238902     1.06829479     0.31987903     0.77904815
