# total energy = -19906.56404679 eV

CRYSTAL
PRIMVEC
        6.63324077     0.00000000     0.00000000
        0.70425309     7.02455959     0.00000000
        0.00000000     0.00000000    11.88694464
PRIMCOORD
24 1
Ti      2.82157054     4.16274755     4.40997178    -0.12580618    -1.31033544     0.65193044
Ti      4.51592353     2.86181210     7.47697326     0.12580618     1.31033544    -0.65193044
Ti      6.00765547     2.86181448     1.53345326     0.21040271     0.42503693    -0.54230396
Ti      1.32983862     4.16274550    10.35349199    -0.21040271    -0.42503693     0.54230396
Ti      2.46944413     0.65046781     1.53350094    -0.12580618    -1.31033544    -0.65193044
Ti      4.86804995     6.37409210    10.35344430     0.12580618     1.31033544     0.65193044
Ti      0.97771212     0.65046523     7.47692564    -0.21040271    -0.42503693    -0.54230396
Ti      6.35978190     6.37409462     4.41001947     0.21040271     0.42503693     0.54230396
O       2.34744215     2.47346686     6.06581701     1.59026183     1.62388956    -0.27426456
O       4.99005192     4.55109285     5.82112803    -1.59026183    -1.62388956     0.27426456
O       1.46517895     2.47349527     0.12238276    -1.18337098     0.90868579     0.31699143
O       5.87231520     4.55106451    11.76456201     1.18337098    -0.90868579    -0.31699143
O       4.63792550     1.03881285     0.12234422    -1.59026183    -1.62388956    -0.27426456
O       2.69956857     5.98574687    11.76460055     1.59026183     1.62388956     0.27426456
O       5.52018877     1.03878450     6.06585562     1.18337098    -0.90868579     0.31699143
O       1.81730524     5.98577521     5.82108949    -1.18337098     0.90868579    -0.31699143
O       0.66936761     4.27273550     3.21096038     0.48668918     0.43436233     0.86822818
O       6.66812640     2.75182422     8.67598466    -0.48668918    -0.43436233    -0.86822818
O       3.83351453     2.75175879     2.73254994     0.52157598     0.91705884     0.18196758
O       3.50397954     4.27280085     9.15439497    -0.52157598    -0.91705884    -0.18196758
O       0.31724119     0.76045550     2.73251194     0.48668918     0.43436233    -0.86822818
O       7.02025282     6.26410415     9.15443290    -0.48668918    -0.43436233     0.86822818
O       3.15185312     0.76052092     8.67602259    -0.52157598    -0.91705884     0.18196758
O       4.18564096     6.26403880     3.21092245     0.52157598     0.91705884    -0.18196758
