# total energy = -19077.20770393 eV

CRYSTAL
PRIMVEC
        5.17575250     0.00001323     0.00000000
        0.00001429     5.50856584     0.00000000
        0.00000000     0.00000000     9.26345890
PRIMCOORD
22 1
Ti      1.91365525     3.42931561     3.29545613    -0.00542092    -0.02183253     0.03534471
Ti      3.40452341     2.26078444     5.92053891     0.01823016    -0.01114934     0.02684901
Ti      4.47342996     2.24462405     1.12897180    -0.02651040     0.02951936     0.03353080
Ti      0.75009865     3.28828235     8.09384280    -0.02474045    -0.03589056    -0.01142907
Ti      1.81276567     0.63120287     1.23615187     0.01189238     0.00058467     0.02387707
Ti      3.20375693     4.98231648     8.14509276    -0.03869049     0.01492809    -0.04496733
Ti      0.78747031     0.56660102     5.79562628     0.00342960    -0.03582576    -0.05400039
Ti      4.46981033     4.94201490     3.50000110     0.02204259     0.01735907     0.03992025
O       3.45069824     3.48696157     4.52486146     0.05521035     0.01340805     0.01156071
O       0.94706283     1.94150169     0.12559772     0.02777718     0.01924574     0.01471109
O       4.15170258     3.61690722     9.13506746     0.02343973    -0.01468692     0.01801316
O       3.55711908     0.83593673     0.07264058     0.02687755    -0.02316102     0.00876541
O       1.56949557     4.72667457     9.13097585    -0.04273946     0.00098756    -0.07174743
O       4.27038315     0.81318346     4.72873477     0.01919021     0.03483306    -0.02128540
O       0.93080390     4.59871144     4.59133963     0.03124380    -0.00296731    -0.02090205
O       0.17391318     3.29612239     2.50176417    -0.03500790     0.06977771     0.03038119
O       5.09668900     2.04891728     6.78742858     0.00147247    -0.02655256     0.04313104
O       2.73948328     2.09635956     2.16548674    -0.02270568    -0.04550880    -0.00271431
O       2.35434508     3.39132905     7.06465701    -0.00905543    -0.02136382    -0.00858157
O       0.19896672     0.52692382     2.18898177    -0.01671526    -0.01373484    -0.00684659
O       2.44289168     0.65240512     6.70125079     0.02461524     0.02704596    -0.04653004
O       2.78425526     4.87397092     2.46594798    -0.04383527     0.02498419     0.00291975
