# total energy = -19960.50410447 eV

CRYSTAL
PRIMVEC
        5.93400000     0.00000000     0.00000000
        0.00000000     9.29699974     0.00000000
        0.00000000     0.00000000     4.64899994
PRIMCOORD
24 1
Ti      4.41481499     6.86966597     2.15828598     0.98232092     1.32085100     0.38501564
Ti      4.47366902     2.41355399     2.29006202    -0.55632985    -1.05436352    -0.31982221
Ti      1.51030500     6.96152501     2.32571999    -0.95129207     0.92978478     0.19410962
Ti      1.45917298     2.30016898     2.44403497     0.63782228    -0.84229242    -0.38645803
Ti      2.98225100     4.67511701     4.64823401    -1.73977642    -0.48452766     0.53702960
Ti      2.98336100     0.09186798     0.08540598     0.12581981    -0.14367407    -1.16447542
Ti      5.90722898     4.61208099     4.54018602     1.78357415    -0.06828287     0.08460552
Ti      5.92352198     0.01089200     0.09752298     0.07358654    -0.76910440    -0.98035609
O       4.56002699     5.56430402     0.77432200    -1.14216107    -0.14408750     0.61676725
O       4.48741800     0.80693001     1.07615502    -0.33511334     1.22128860     0.34386821
O       1.49740900     5.59174700     0.89338000     0.56477233    -0.64313495    -0.78834629
O       1.52104402     0.75791999     1.08700701    -0.90711896     0.90949183     0.02714417
O       4.41817198     8.56252897     3.83391701     0.40133984    -1.19896498    -1.13729345
O       4.49377400     3.72502001     3.71091198    -0.51242054     0.50553512     0.37305487
O       1.43027001     8.44942998     3.70779402     0.34640434    -0.43720880    -0.24429706
O       1.56210298     3.71249999     3.76862501    -0.46511788     0.92876868     0.28647422
O       3.03495398     5.95197499     3.12442902    -0.41713207     0.47249875     0.21608099
O       2.96150502     1.52482499     3.30444898     0.12255836    -0.36575627     0.36440953
O       5.91398001     6.06944699     3.15500498     0.13672412    -0.53651152     0.52447464
O       5.86937201     1.52109900     3.29334599     0.01298330    -0.22788776     0.40712585
O       2.96255100     7.89132399     1.33520199     0.21936892    -1.47112433     1.26067765
O       2.80491100     3.21996303     1.43813898     1.77071349     0.68150200    -0.77626338
O       5.90853001     7.69851302     1.30819802     0.31606094     0.98397260     0.34481052
O       0.01379200     3.19933300     1.37426797    -0.46758742     0.43322770    -0.16833687
