# total energy = -19518.71719649 eV

CRYSTAL
PRIMVEC
        7.60600008     0.00000000     0.00000000
        0.00000000     7.60600008     0.00000000
       -1.89786986    -1.89786986     4.85670466
PRIMCOORD
23 1
Ti      3.79541101     6.65868798     1.20404700    -0.91480964     0.66822302     0.04063450
Ti      3.84098999     2.77591902     1.27711500    -1.42829024    -0.46252672    -0.39898239
Ti     -0.06633300     6.53945403     1.16156999     0.85316228     1.15062231    -0.27483457
Ti      0.02703699     2.78097102     1.17683300     1.10699839    -0.61036675     0.72254068
Ti      5.62723923     2.86647125     3.63791283     0.98518436     0.81676084     0.21499495
Ti      5.72173722    -0.83051279     3.59532782    -0.45410789    -1.26578181     0.95823508
Ti      2.02336123     2.84805821     3.80708682    -0.22741544     0.36248197    -2.60100554
Ti      1.85112923    -0.89020975     3.54497581     0.22996341    -0.52160658     0.84723434
O       3.56397602     4.78020802     0.72481900     0.36495640    -0.42500634     2.02335584
O       3.79366800     0.86302301     0.77256301     0.12478082     1.57742045     0.29793954
O       0.13479002     4.73996901     0.67669102    -0.37623532     0.21982092     1.39194512
O      -0.04720700     0.92413001     0.74532002    -0.44843990    -0.52844340     0.14313568
O       5.74509023     4.73798121     3.94674379    -0.02569201     0.03238846     0.53493338
O       5.94807622     0.93498820     4.19877382    -0.22774043     0.78407054    -2.49725661
O       2.06316023     4.80013223     3.95258781    -0.71430723    -0.77603841     0.58236074
O       1.71190423     0.95183223     4.13223979     0.22765404     0.23053162     0.13694523
O       3.85339423     2.90765325     3.28925080    -0.64817766    -0.76774172    -0.30109403
O       3.67525724    -0.64812778     3.19232182     1.86222371    -0.34630844    -0.17822611
O      -0.05903877    -0.94807978     3.19192383    -0.14087105    -0.13557535    -0.27968162
O       5.65031797     6.65769403     1.65517198     0.15649437    -0.54102921    -0.59912845
O       5.76891797     2.94294101     1.65446098     0.11519703    -0.36545211    -0.36829241
O       1.82698202     6.59593401     1.65586801    -0.06581178     0.25076313    -0.92377585
O       1.86469601     2.61622100     1.73124100    -0.35471647     0.65279331     0.52802251
