# total energy = -19517.92701442 eV

CRYSTAL
PRIMVEC
        7.60600008     0.00000000     0.00000000
        0.00000000     7.60600008     0.00000000
       -1.89786986    -1.89786986     4.85670466
PRIMCOORD
23 1
Ti      3.74382300     6.61265300     1.10713797     1.15773373     0.79846358     1.85059281
Ti      3.81576200     2.78310001     1.11648901    -0.39129891    -0.66098767     2.09328653
Ti      0.02884201     6.79413502     1.20708299    -1.29257220     0.59657689    -0.71546011
Ti     -0.04759801     2.93891000     1.11634301     0.52088924    -1.18932823     1.25353127
Ti      5.67803422     2.93891625     3.74105381    -1.47215894     0.27985234     0.48627678
Ti      5.74061223    -0.91552078     3.55532980    -1.69751056    -0.11297791     0.00862760
Ti      2.01627322     2.76666424     3.76515683     1.12764718    -0.13955696    -1.96606958
Ti      1.88227025    -1.03431276     3.57147981     0.99455089     0.35739993     0.45378419
O       3.95489100     4.63163399     0.83619002    -0.91251468     0.97110294     1.13606652
O       4.02842399     0.92050700     0.62951402    -0.43101809    -0.86942040     0.39538259
O       0.02986999     4.83459998     0.94881798     0.71914605    -0.20567625    -0.66573882
O      -0.18666701     1.03821301     0.76432198     0.25677385    -1.03237595     0.13791762
O       5.61830122     4.85174923     3.96374980     0.74783520    -1.39558400     0.97922377
O       5.65284522     0.94622422     4.13416282     0.69320541     1.11486674    -1.01129367
O       1.62829724     4.57819523     4.09142683    -0.33260677     1.61182106    -1.05927356
O       1.96425822     0.94799220     4.12615880    -1.12083119    -1.89472864    -0.80490883
O       3.81895320     2.62192622     3.53385679     0.20990648     0.94645659    -0.94807073
O       3.74541222    -1.05947678     3.13419382    -0.55842916    -0.01702559    -0.23124845
O      -0.07253978    -0.94513777     3.17275883     1.76651256     0.26818519     0.40797792
O       5.72088101     6.59258803     1.57382299    -0.92424174     0.45254672     0.05513784
O       5.71784898     2.78542198     1.90656001     0.69943571     0.41988753    -1.50024594
O       1.87658599    -0.53549102     1.60627002     0.35457763    -1.13451897    -0.06530322
O       1.88459402     2.63553602     1.77073302    -0.11503146     0.83502108    -0.29019255
