# total energy = -19519.98646703 eV

CRYSTAL
PRIMVEC
        5.17575250     0.00001323     0.00000000
        0.00001429     5.50856584     0.00000000
        0.00000000     0.00000000     9.26345890
PRIMCOORD
23 1
Ti      1.84860893     3.37094790     3.38339672     0.00547594     0.04503957     0.01237884
Ti      3.35543822     2.18240787     5.77272787     0.03889618    -0.03352951     0.01857648
Ti      4.55685371     1.94528753     1.40909073     0.01616916     0.03552983     0.00175684
Ti      0.86798069     3.28843171     7.94448428    -0.00803907     0.02935327     0.01762209
Ti      1.99432504     0.53130483     1.22532336     0.01869553    -0.01028005    -0.04075020
Ti      3.18306044     5.15519250     7.93411592    -0.05640617     0.02575629     0.02581928
Ti      0.66368435     0.71178269     5.66709951    -0.04251141    -0.06768277     0.00341288
Ti      4.51106809     4.84957493     3.54482797     0.04471356    -0.02663201    -0.02678551
O       1.57004674     1.93223391     4.65799639    -0.00721478     0.05166068     0.00205740
O       3.53644798     3.54674556     4.52168578     0.03075580    -0.01782958    -0.00631180
O       0.76567734     2.09468216     0.11062153    -0.02039168     0.00611100    -0.02232387
O       3.51781682     0.91688506     0.06262837     0.01793217    -0.04840258     0.02405345
O       1.72923388     4.68653251     9.15371432     0.01538446    -0.00166710     0.03141426
O       4.10610177     0.77237071     4.72214997    -0.03143715     0.04613101     0.00135523
O       0.96893884     4.63653286     4.58526988     0.03932864    -0.00803419     0.04366943
O       0.16886003     3.35528386     2.42872553     0.00104053     0.01824970     0.00747677
O       4.95719177     2.11915439     6.82233203    -0.00989361     0.01708910    -0.02766405
O       2.77603708     2.16116947     2.10499281    -0.04024755    -0.03250261    -0.00779996
O       2.51906982     3.39763210     7.15392241    -0.04164417    -0.02771470    -0.01615913
O       0.23958722     0.54445767     2.18492218     0.02676545    -0.04568826     0.03030509
O       4.91993042     4.74751791     7.39304840     0.01440435     0.01995382    -0.03318293
O       2.32479408     0.70626588     6.75639081    -0.00489024     0.01985355    -0.03411649
O       2.80243464     4.88166116     2.45395621    -0.00688593     0.00523503    -0.00480437
