# total energy = -4988.98727184 eV

CRYSTAL
PRIMVEC
        3.60406814     0.00000000     0.00000000
        0.53757838     3.56375036     0.00000000
       -2.07085574    -1.78190313     4.61265775
PRIMCOORD
6 1
Ti      0.40305273     2.67294899     1.15316419     0.00171647    -0.00182883    -0.00101636
Ti      1.66773843    -0.89110143     3.45949306    -0.00171647     0.00182883     0.00101636
O       0.13443250     0.89093226     0.75136413     0.00021906     0.00107652     0.76008111
O       1.93635850     0.89091516     3.86129312    -0.00021906    -0.00107652    -0.76008111
O      -0.13441045    -0.89091328     3.05769301     0.00108346     0.00014552     0.75997698
O       2.20520140     2.67276071     1.55496424    -0.00108346    -0.00014552    -0.75997698
