# total energy = -4987.33151213 eV

CRYSTAL
PRIMVEC
        3.07213739     0.00000000     0.00000000
        1.63469002     4.52750796     0.00000000
       -0.00001062    -0.00006378     4.89131826
PRIMCOORD
6 1
Ti      2.35340838     2.26372204     2.44565913     0.00000000     0.00000000     0.00000000
Ti      0.00000000     0.00000000     0.00000000     0.00000000     0.00000000     0.00000000
O       1.85464360     0.88233218     0.95324590    -1.52034297     0.87816215     0.73845633
O       2.85217317     3.64511189     3.93807241     1.52034297    -0.87816215    -0.73845633
O       0.49876032     1.38136408     3.39890600     1.52031777    -0.87859950     0.73864736
O       1.13591917     3.14607998     1.49241231    -1.52031777     0.87859950    -0.73864736
