# total energy = -19937.13265746 eV

CRYSTAL
PRIMVEC
        5.98180523     0.00000000     0.00000000
        1.26071429     6.24037501     0.00000000
        0.00000000     0.00000000    10.76058345
PRIMCOORD
24 1
Ti      2.91521471     3.69804046     3.99209985     0.00993886    -1.78730277     0.82874527
Ti      4.32730452     2.54233471     6.76848402    -0.00993886     1.78730277    -0.82874527
Ti      5.67253699     2.54233695     1.38814909    -0.17660760    -0.27917717    -0.17545086
Ti      1.56998226     3.69803846     9.37243490     0.17660760     0.27917717     0.17545086
Ti      2.28485771     0.57785318     1.38819224     0.00993886    -1.78730277    -0.82874527
Ti      4.95766154     5.66252217     9.37239175    -0.00993886     1.78730277     0.82874527
Ti      0.93962516     0.57785077     6.76844088     0.17660760     0.27917717    -0.17545086
Ti      6.30289409     5.66252458     3.99214299    -0.17660760    -0.27917717     0.17545086
O       2.33719795     2.19734215     5.49104353     1.66124950     1.85386223    -0.53522803
O       4.90532128     4.04303301     5.26954034    -1.66124950    -1.85386223     0.53522803
O       1.54158244     2.19736729     0.11078625    -0.79066182     0.28286413     0.76366420
O       5.70093686     4.04300793    10.64979731     0.79066182    -0.28286413    -0.76366420
O       4.27496426     0.92284555     0.11075132    -1.66124950    -1.85386223    -0.53522803
O       2.96755497     5.31752961    10.64983225     1.66124950     1.85386223     0.53522803
O       5.07057984     0.92282047     5.49107846     0.79066182    -0.28286413     0.76366420
O       2.17193934     5.31755476     5.26950541    -0.79066182     0.28286413    -0.76366420
O       0.98417065     3.79574976     2.90670215     0.40613598     1.12098134     1.28019002
O       6.25834858     2.44462541     7.85388172    -0.40613598    -1.12098134    -1.28019002
O       3.70211180     2.44456712     2.47362402     0.71731594     1.28414978     0.45625348
O       3.54040743     3.79580804     8.28695967    -0.71731594    -1.28414978    -0.45625348
O       0.35381363     0.67556230     2.47358964     0.40613598     1.12098134    -1.28019002
O       6.88870560     5.56481292     8.28699405    -0.40613598    -1.12098134     1.28019002
O       2.91005041     0.67562053     7.85391605    -0.71731594    -1.28414978     0.45625348
O       4.33246882     5.56475464     2.90666776     0.71731594     1.28414978    -0.45625348
