# total energy = -4987.50189316 eV

CRYSTAL
PRIMVEC
        3.22909315     0.00000000     0.00000000
        1.24541676     4.90382774     0.00000000
       -0.00000801    -0.00006630     5.10012399
PRIMCOORD
6 1
Ti      2.23725082     2.45188062     2.55006205     0.00000000     0.00000000     0.00000000
Ti      0.00000000     0.00000000     0.00000000     0.00000000     0.00000000     0.00000000
O       1.85725830     0.95567082     0.99393908     0.47458494    -0.23814363    -0.49068185
O       2.61724328     3.94809043     4.10618503    -0.47458494     0.23814363     0.49068185
O       0.37998912     1.49618297     3.54400216    -0.47452889     0.23741370    -0.48987401
O       0.86541950     3.40757837     1.55612195     0.47452889    -0.23741370     0.48987401
