# total energy = -19923.64817842 eV

CRYSTAL
PRIMVEC
        7.47637455     0.00000000     0.00000000
        0.00002503     3.83120754     0.00000000
        0.00000000     0.00000000    11.29561390
PRIMCOORD
24 1
Ti      2.70984114     2.27037011     4.19059219     0.00898935     0.22142014     1.82545513
Ti      4.76655861     1.56083760     7.10502182    -0.00898935    -0.22142014    -1.82545513
Ti      6.44790043     1.56083896     1.45716969     0.00865896    -0.22102497    -1.82569295
Ti      1.02849937     2.27036892     9.83844450    -0.00865896     0.22102497     1.82569295
Ti      2.70982868     0.35476640     1.45721498     0.00898935     0.22142014    -1.82545513
Ti      4.76657112     3.47644142     9.83839920    -0.00898935    -0.22142014     1.82545513
Ti      1.02848686     0.35476493     7.10497652    -0.00865896     0.22102497    -1.82569295
Ti      6.44791289     3.47644290     4.19063749     0.00865896    -0.22102497     1.82569295
O       2.36632865     1.34903336     5.76406532     2.49255997     0.36308618    -0.61167287
O       5.11007115     2.48217435     5.53154869    -2.49255997    -0.36308618     0.61167287
O       1.37192016     1.34904878     0.11629467    -2.49297777     0.36295068    -0.61171761
O       6.10447970     2.48215893    11.17931901     2.49297777    -0.36295068     0.61171761
O       5.11005864     0.56657058     0.11625803    -2.49255997    -0.36308618    -0.61167287
O       2.36634111     3.26463713    11.17935570     2.49255997     0.36308618     0.61167287
O       6.10446725     0.56655516     5.76410196     2.49297777    -0.36295068    -0.61171761
O       1.37193244     3.26465260     5.53151206    -2.49297777     0.36295068     0.61171761
O       0.27164931     2.33035764     3.05122711    -1.17408055     0.37633997     0.51416117
O       7.20475044     1.50085012     8.24438691     1.17408055    -0.37633997    -0.51416117
O       4.00984594     1.50081436     2.59661580    -1.17282071    -0.37607874    -0.51504126
O       3.46655381     2.33039340     8.69899805     1.17282071     0.37607874     0.51504126
O       0.27163685     0.41475381     2.59657973    -1.17408055     0.37633997    -0.51416117
O       7.20476295     3.41645389     8.69903412     1.17408055    -0.37633997     0.51416117
O       3.46654135     0.41478958     8.24442292     1.17282071     0.37607874    -0.51504126
O       4.00985845     3.41641813     3.05119104    -1.17282071    -0.37607874     0.51504126
