# total energy = -19902.39158546 eV

CRYSTAL
PRIMVEC
        6.42828466     0.00000000     0.00000000
        0.00002152     3.29412237     0.00000000
        0.00000000     0.00000000     9.71211663
PRIMCOORD
24 1
Ti      2.32995686     1.95209393     3.60312600    -1.26119367     1.91899961    -3.09445236
Ti      4.09834946     1.34202859     6.10899073     1.26119367    -1.91899961     3.09445236
Ti      5.54398916     1.34202976     1.25289356    -1.25919361    -1.91995966     3.09845762
Ti      0.88431721     1.95209290     8.45922331     1.25919361     1.91995966    -3.09845762
Ti      2.32994615     0.30503279     1.25293251    -1.26119367     1.91899961     3.09445236
Ti      4.09836022     2.98908982     8.45918436     1.26119367    -1.91899961    -3.09445236
Ti      0.88430645     0.30503153     6.10895178     1.25919361     1.91995966     3.09845762
Ti      5.54399987     2.98909109     3.60316495    -1.25919361    -1.91995966    -3.09845762
O       2.03460034     1.15991653     4.95601878     6.38090834    -2.75369802     5.58260237
O       4.39370604     2.13420598     4.75609794    -6.38090834     2.75369802    -5.58260237
O       1.17959490     1.15992979     0.09999168    -6.38410962    -2.75379289     5.58150554
O       5.24871152     2.13419273     9.61212476     6.38410962     2.75379289    -5.58150554
O       4.39369528     0.48714480     0.09996018    -6.38090834     2.75369802     5.58260237
O       2.03461105     2.80697772     9.61215630     6.38090834    -2.75369802    -5.58260237
O       5.24870081     0.48713154     4.95605028     6.38410962     2.75379289     5.58150554
O       1.17960547     2.80699102     4.75606644    -6.38410962    -2.75379289    -5.58150554
O       0.23356763     2.00367199     2.62348499     4.02755412    -1.25140882     1.39338262
O       6.19473869     1.29045057     7.08863174    -4.02755412     1.25140882    -1.39338262
O       3.44771800     1.29041982     2.23260424     4.03100197     1.25157389    -1.39410639
O       2.98058832     2.00370274     7.47951234    -4.03100197    -1.25157389     1.39410639
O       0.23355692     0.35661076     2.23257323     4.02755412    -1.25140882    -1.39338262
O       6.19474945     2.93751176     7.47954335    -4.02755412     1.25140882     1.39338262
O       2.98057761     0.35664151     7.08866270    -4.03100197    -1.25157389    -1.39410639
O       3.44772876     2.93748101     2.62345398     4.03100197     1.25157389     1.39410639
