# total energy = -19072.83863469 eV

CRYSTAL
PRIMVEC
        5.17600016     0.00000000     0.00000000
        0.00000000     5.50899976     0.00000000
        0.00000000     0.00000000     9.26300011
PRIMCOORD
22 1
Ti      1.75866402     3.40535800     3.21999202     0.19299787     0.24533913    -0.09498764
Ti      3.75748900     2.34523398     5.97976600    -3.06369347    -0.16061070    -0.64263230
Ti      4.29428503     2.13385302     1.19368502     0.82605641     1.64972633    -0.79355766
Ti      0.84576500     3.23862801     8.20487903    -0.51706884    -0.05230449     0.09289631
Ti      1.75529602     0.46307798     1.33566000     0.24208025     0.54647584    -1.31396456
Ti      3.17106599     5.13663101     7.99955100     1.70849971    -1.61112763    -0.31395135
Ti      0.58995701     0.19319002     6.05953101     1.34548989     1.79781601    -2.39802201
Ti      4.32648202     5.00311901     3.45630999     1.75462763    -0.57370460     1.04386776
O       3.34513498     3.43771100     4.35123302     0.77839149    -0.26081743     2.12365795
O       1.04985898     2.07199500     0.33660700    -1.05374825    -0.42225037    -0.64324731
O       4.29301997     3.76241299     8.96941199     1.27789197    -0.44351315     0.86096429
O       3.35158798     0.86404601     0.15667801     0.93512651     0.39042422    -1.10943991
O       1.61113602     4.85643298     8.89975199    -2.02342937     0.68590450     1.20357395
O       4.52220802     0.98394599     4.67764902    -0.43642538    -0.94364509     0.30511113
O       1.02233499     4.75707403     4.26966902    -1.17563479    -0.29985296     1.90577436
O       0.05129400     3.55153099     2.26666100     0.39727955    -0.56813996     0.99236237
O       0.26051798     2.25014200     6.48907699     1.49799005    -0.35720401     1.78655715
O       2.74392898     1.87481499     2.28687801    -0.55924111     0.40734002     0.72684728
O       2.63088900     3.14094300     7.58621298    -0.13154411     0.03804411    -3.34762409
O       0.00822601     0.65941402     1.99155202     0.12323559    -0.43956187     1.08120276
O       2.50385502     0.63787899     6.35944200    -0.56182224    -0.41942087     0.95643813
O       2.82079600     4.71312300     2.42235601    -1.55705988     0.79108323    -2.42182632
