# total energy = -19916.29818346 eV

CRYSTAL
PRIMVEC
        7.54624728     0.00000000     0.00000000
        0.00002970     5.35432599     0.00000000
        0.00000000     0.00000000    11.72406542
PRIMCOORD
24 1
Ti      2.73516940     3.17296860     4.34954465     0.56412724    -0.56126894     1.47987405
Ti      4.81110770     2.18135739     7.37452090    -0.56412724     0.56126894    -1.47987405
Ti      6.50816296     2.18135925     1.51244125     0.56314353     0.56151911    -1.48018464
Ti      1.03811415     3.17296700    10.21162435    -0.56314353    -0.56151911     1.48018464
Ti      2.73515456     0.49580574     1.51248825     0.56446277    -0.61829398    -1.47849902
Ti      4.81112255     4.85852045    10.21157735    -0.56446277     0.61829398     1.47849902
Ti      1.03809930     0.49580374     7.37447383    -0.56342996    -0.61842073    -1.47957914
Ti      6.50817781     4.85852244     4.34959165     0.56342996     0.61842073     1.47957914
O       2.38844543     1.88534923     5.98270086     0.77277774     1.41318552    -1.50692618
O       5.15783168     3.46897683     5.74136468    -0.77277774    -1.41318552     1.50692618
O       1.38474340     1.88537081     0.12070583    -0.77288367     1.41336858    -1.50743500
O       6.16153383     3.46895525    11.60335933     0.77288367    -1.41336858     1.50743500
O       5.15781689     0.79181377     0.12066777    -0.77279471    -1.41469322    -1.50655851
O       2.38846021     4.56251222    11.60339739     0.77279471     1.41469322     1.50655851
O       6.16151898     0.79179225     5.98273886     0.77236508    -1.41435923    -1.50662844
O       1.38475806     4.56253387     5.74132662    -0.77236508     1.41435923     1.50662844
O       0.27419083     3.25680459     3.16696258    -1.87321338     0.53834549     0.21298589
O       7.27208628     2.09752147     8.55710296     1.87321338    -0.53834549    -0.21298589
O       4.04732291     2.09747154     2.69510748    -1.87241866    -0.53800148    -0.21346592
O       3.49895420     3.25685451     9.02895787     1.87241866     0.53800148     0.21346592
O       0.27417598     0.57964153     2.69507000    -1.87338153     0.53787498    -0.21339444
O       7.27210113     4.77468447     9.02899529     1.87338153    -0.53787498     0.21339444
O       3.49893941     0.57969145     8.55714032     1.87255827     0.53766595    -0.21315842
O       4.04733770     4.77463460     3.16692516    -1.87255827    -0.53766595     0.21315842
