# total energy = -19954.11820587 eV

CRYSTAL
PRIMVEC
        5.10846787     0.00000000     0.00000000
        0.00002542     4.91914929     0.00000000
        0.00000000     0.00000000     8.72947497
PRIMCOORD
24 1
Ti      1.85158899     2.91508327     3.23857303    -0.37872801     1.18909117    -1.75901317
Ti      3.25690430     2.00406592     5.49090224     0.37872801    -1.18909117     1.75901317
Ti      4.40573390     2.00406761     1.12612973    -0.37704239    -1.18994221     1.74364131
Ti      0.70275944     2.91508183     7.60334568     0.37704239     1.18994221    -1.74364131
Ti      1.85157633     0.45550872     1.12616475    -0.37840893     1.18872556     1.74255630
Ti      3.25691701     4.46364062     7.60331066     0.37840893    -1.18872556    -1.74255630
Ti      0.70274673     0.45550693     5.49086727     0.37759801     1.18771075     1.75987063
Ti      4.40574656     4.46364246     3.23860805    -0.37759801    -1.18771075    -1.75987063
O       1.61687130     1.73211603     4.45458437    -0.52920290    -1.41599291     0.73812851
O       3.49162204     3.18703316     4.27489090     0.52920290     1.41599291    -0.73812851
O       0.93741047     1.73213592     0.08987484     0.52843389    -1.41693573     0.73977067
O       4.17108292     3.18701332     8.63960022    -0.52843389     1.41693573    -0.73977067
O       3.49160933     0.72745847     0.08984654     0.52873933     1.41653439     0.73924694
O       1.61688401     4.19169072     8.63962853    -0.52873933    -1.41653439    -0.73924694
O       4.17107021     0.72743862     4.45461272    -0.52886326     1.41656524     0.73861702
O       0.93742304     4.19171062     4.27486259     0.52886326    -1.41656524    -0.73861702
O       0.18561800     2.99210547     2.35804903     0.57631967    -0.12944995     0.20855665
O       4.92287534     1.92704377     6.37142624    -0.57631967     0.12944995    -0.20855665
O       2.73985646     1.92699799     2.00671636     0.57653359     0.12885911    -0.20979207
O       2.36863683     2.99215125     6.72275880    -0.57653359    -0.12885911     0.20979207
O       0.18560529     0.53253077     2.00668846     0.57627442    -0.12910619    -0.21000624
O       4.92288800     4.38661847     6.72278666    -0.57627442     0.12910619     0.21000624
O       2.36862417     0.53257656     6.37145409    -0.57663283    -0.12938927    -0.20868109
O       2.73986918     4.38657264     2.35802117     0.57663283     0.12938927     0.20868109
