# total energy = -19878.97706580 eV

CRYSTAL
PRIMVEC
        9.47162708     0.00000000     0.00000000
        0.00002945     3.36022516     0.00000000
        0.00000000     0.00000000    15.06855982
PRIMCOORD
24 1
Ti      3.43302649     1.99126620     5.59032835     0.24157272     0.06507696     1.99966131
Ti      6.03862966     1.36895863     9.47823192    -0.24157272    -0.06507696    -1.99966131
Ti      8.16867847     1.36895971     1.94389158     0.23251986    -0.06578273    -2.00117004
Ti      1.30297774     1.99126525    13.12466881    -0.23251986     0.06578273     2.00117004
Ti      3.43301215     0.31115369     1.94395201     0.24186582     0.06553539    -2.00171511
Ti      6.03864406     3.04907128    13.12460838    -0.24186582    -0.06553539     2.00171511
Ti      1.30296334     0.31115254     9.47817149    -0.23226146     0.06590511    -1.99968908
Ti      8.16869287     3.04907242     5.59038877     0.23226146    -0.06590511     1.99968908
O       2.99783999     1.18319230     7.68937091     0.79238549     0.50803629    -2.00785414
O       6.47381621     2.17703260     7.37918935    -0.79238549    -0.50803629     2.00785414
O       1.73804937     1.18320594     0.15513930    -0.79231350     0.50806149    -2.00808348
O       7.73360690     2.17701896    14.91342052     0.79231350    -0.50806149     2.00808348
O       6.47380181     0.49691996     0.15509036    -0.79223097    -0.50797844    -2.00788705
O       2.99785440     2.86330488    14.91346946     0.79223097     0.50797844     2.00788705
O       7.73359250     0.49690638     7.68941978     0.79328538    -0.50818181    -2.00814776
O       1.73806358     2.86331852     7.37914048    -0.79328538     0.50818181     2.00814776
O       0.34414380     2.04387942     4.07039401    -1.50789343     0.52937440     0.67192464
O       9.12751241     1.31634542    10.99816620     1.50789343    -0.52937440    -0.67192464
O       5.07996986     1.31631427     3.46393400    -1.50792042    -0.52929392    -0.67285383
O       4.39168634     2.04391063    11.60462601     1.50792042     0.52929392     0.67285383
O       0.34412940     0.36376684     3.46388590    -1.50807855     0.52946773    -0.67287697
O       9.12752681     2.99645806    11.60467411     1.50807855    -0.52946773     0.67287697
O       4.39167201     0.36379799    10.99821423     1.50805849     0.52924198    -0.67268594
O       5.07998420     2.99642685     4.07034591    -1.50805849    -0.52924198     0.67268594
