# total energy = -19068.00162971 eV

CRYSTAL
PRIMVEC
        5.17600016     0.00000000     0.00000000
        0.00000000     5.50899976     0.00000000
        0.00000000     0.00000000     9.26300011
PRIMCOORD
22 1
Ti      1.46661501     3.65150601     3.55287902     1.55149833    -0.20718497    -2.15580627
Ti      3.56373498     2.67482500     6.04526502     1.16008141    -2.37480623    -1.75982949
Ti      4.21683999     2.21614802     1.21770300     0.08907153     0.70505383     3.22132503
Ti      1.28361298     2.11200001     7.97254301    -0.99833839     0.31331989    -2.38414371
Ti      1.77660498     0.54440300     1.23475701    -0.22636849    -0.11051685     1.92617993
Ti      3.52698600     5.36953102     8.02385098    -0.52311093    -1.30216807    -0.10404616
Ti      0.73676200     5.30030802     6.15551498    -1.85754353     2.60663909    -1.34213075
Ti      4.17285700     5.24442299     3.43751600    -1.29626431    -0.13627032     2.22764137
O       3.21258201     3.81093902     4.33754500     0.20048699    -1.69459287     3.26061536
O       1.17339499     2.13916099     0.49069400    -2.23161270     1.68333426    -1.20498265
O       0.24646499     3.56424903     6.74446502    -0.43287006    -0.16548243    -0.21091616
O       3.54388300     0.65233500     0.43720402     2.85284905     0.59727134     0.00399858
O       1.85328298     5.46772198     8.65190198    -4.61013957     0.00808895    -0.78152566
O       4.32559099     0.96592401     5.02012603    -0.71618439    -0.33566536    -1.49258070
O       1.07515101     5.38954398     4.32486501    -0.30887548    -3.33950840    -0.42442347
O       4.91314798     3.48648802     2.38495101     1.66919010     1.10562413     1.09285912
O       4.61405700     1.07484398     7.16592099     1.84502380     0.46940391     2.36025249
O       2.53208801     2.01213299     2.41123498     0.64069138    -0.73620918    -0.47343540
O       2.76320199     3.41664900     7.54743202     0.34468479     0.13784281     0.12509938
O       4.99624701     0.80249598     2.39867401     2.29499504     1.87029055    -3.53427340
O       2.05727398     1.06564402     6.37438300     0.96576456     0.72800839     0.85478053
O       2.52738600     4.65563001     2.20336199    -0.41302885     0.17752754     0.79534175
