# total energy = -19910.65158121 eV

CRYSTAL
PRIMVEC
        6.54732692     0.00000000     0.00000000
        0.00003589     6.96833578     0.00000000
        0.00000000     0.00000000    11.71827551
PRIMCOORD
24 1
Ti      2.37311237     4.12942934     4.34739672     0.05502806    -0.91868944     0.62809785
Ti      4.17425044     2.83890651     7.37087913    -0.05502806     0.91868944    -0.62809785
Ti      5.64666120     2.83890891     1.51169438     0.05479717     0.91905659    -0.62799629
Ti      0.90070160     4.12942721    10.20658160    -0.05479717    -0.91905659     0.62799629
Ti      2.37309456     0.64526158     1.51174137     0.05502806    -0.91868944    -0.62809785
Ti      4.17426825     6.32307447    10.20653461    -0.05502806     0.91868944     0.62809785
Ti      0.90068379     0.64525899     7.37083213    -0.05479717    -0.91905659    -0.62799629
Ti      5.64667901     6.32307706     4.34744371     0.05479717     0.91905659     0.62799629
O       2.07228294     2.45366955     5.97974642     1.41122711     1.31134383    -0.00298222
O       4.47507986     4.51466636     5.73852943    -1.41122711    -1.31134383     0.00298222
O       1.20144407     2.45369762     0.12064622    -1.41206735     1.31235942    -0.00401015
O       5.34591880     4.51463830    11.59762929     1.41206735    -1.31235942     0.00401015
O       4.47506205     1.03049840     0.12060820    -1.41122711    -1.31134383    -0.00298222
O       2.07230075     5.93783745    11.59766732     1.41122711     1.31134383     0.00298222
O       5.34590099     1.03047034     5.97978444     1.41206735    -1.31235942    -0.00401015
O       1.20146174     5.93786558     5.73849140    -1.41206735     1.31235942     0.00401015
O       0.23790133     4.23853685     3.16539863     0.49748731    -0.28777597     0.33035525
O       6.30946147     2.72979900     8.55287721    -0.49748731     0.28777597    -0.33035525
O       3.51157004     2.72973405     2.69377654     0.49801027     0.28781788    -0.33113713
O       3.03579276     4.23860180     9.02449910    -0.49801027    -0.28781788     0.33113713
O       0.23788352     0.75436889     2.69373912     0.49748731    -0.28777597    -0.33035525
O       6.30947928     6.21396696     9.02453652    -0.49748731     0.28777597     0.33035525
O       3.03577496     0.75443384     8.55291457    -0.49801027    -0.28781788    -0.33113713
O       3.51158785     6.21390201     3.16536121     0.49801027     0.28781788     0.33113713
