# total energy = -4986.50842591 eV

CRYSTAL
PRIMVEC
        3.32876402     0.00000000     0.00000000
        0.00000000     3.47711610     0.00000000
        0.00000000    -0.00006077     4.52749452
PRIMCOORD
6 1
Ti      1.66438186     1.73852762     2.26374721     0.00000000     0.00000000     0.00000000
Ti      0.00000000     0.00000000     0.00000000     0.00000000     0.00000000     0.00000000
O       1.66438186     0.67762686     0.88234198     0.00000000    -1.42369542    -1.47549572
O       1.66438186     2.79942837     3.64515240     0.00000000     1.42369542     1.47549572
O       0.00000000     1.06087644     3.14609018    -0.00000000     1.42351108    -1.47511725
O       0.00000000     2.41617879     1.38140424    -0.00000000    -1.42351108     1.47511725
