# total energy = -19897.63555004 eV

CRYSTAL
PRIMVEC
        6.82886373     0.00000000     0.00000000
        3.42025314     6.41290519     0.00000000
        0.00000000     0.00000000    12.64770949
PRIMCOORD
24 1
Ti      4.50197353     3.80028168     4.69221004    -0.19442946    -1.98791805     0.25026742
Ti      5.74714352     2.61262367     7.95549959     0.19442946     1.98791805    -0.25026742
Ti      7.28286958     2.61262596     1.63159425    -0.20663038    -1.49360683     0.52698301
Ti      2.96624768     3.80027969    11.01611545     0.20663038     1.49360683    -0.52698301
Ti      2.79184722     0.59382930     1.63164498    -0.19442946    -1.98791805    -0.25026742
Ti      7.45726996     5.81907630    11.01606478     0.19442946     1.98791805     0.25026742
Ti      1.25612105     0.59382684     7.95544886     0.20663038     1.49360683     0.52698301
Ti      8.99299612     5.81907870     4.69226070    -0.20663038    -1.49360683    -0.52698301
O       3.36570783     2.25809298     6.45402937     1.71754280     1.87966454    -0.85109563
O       6.88340931     4.15481242     6.19368026    -1.71754280    -1.87966454     0.85109563
O       2.45743643     2.25811880     0.13021526     0.22151707    -1.24693587     1.85810018
O       7.79168079     4.15478666    12.51749396    -0.22151707     1.24693587    -1.85810018
O       5.17328287     0.94835979     0.13017422    -1.71754280    -1.87966454    -0.85109563
O       5.07583425     5.46454555    12.51753501     1.71754280     1.87966454     0.85109563
O       6.08155435     0.94833403     6.45407035    -0.22151707     1.24693587     1.85810018
O       4.16756272     5.46457140     6.19363921     0.22151707    -1.24693587    -1.85810018
O       2.32850023     3.90069242     3.41646187     0.62219151     3.24866307     3.01264317
O       7.92061690     2.51221298     9.23124769    -0.62219151    -3.24866307    -3.01264317
O       5.00238343     2.51215309     2.90743311     0.40428812     2.19205781     2.15371853
O       5.24673371     3.90075232     9.74027624    -0.40428812    -2.19205781    -2.15371853
O       0.61837379     0.69423979     2.90739274     0.62219151     3.24866307    -3.01264317
O       9.63074333     5.71866555     9.74031661    -0.62219151    -3.24866307     3.01264317
O       3.53660727     0.69429969     9.23128800    -0.40428812    -2.19205781     2.15371853
O       6.71250985     5.71860565     3.41642150     0.40428812     2.19205781    -2.15371853
