# total energy = -4990.23323936 eV

CRYSTAL
PRIMVEC
        3.08400169     0.00000000     0.00000000
        0.00000000     4.37196209     0.00000000
        0.00000000    -0.00005980     4.61359903
PRIMCOORD
6 1
Ti      1.54200085     2.18595099     2.30679951     0.00000000     0.00000000     0.00000000
Ti      0.00000000     0.00000000     0.00000000     0.00000000     0.00000000     0.00000000
O       1.54200085     0.85201930     0.89912249     0.00000000     0.09599012    -0.00681934
O       1.54200085     3.51988262     3.71447649     0.00000000    -0.09599012     0.00681934
O       0.00000000     1.33390746     3.20592294     0.00000000    -0.09604488    -0.00668513
O       0.00000000     3.03799452     1.40767604     0.00000000     0.09604488     0.00668513
