# total energy = -19939.33876139 eV

CRYSTAL
PRIMVEC
        5.01434492     0.00000000     0.00000000
        2.05263094     4.92624793     0.00000000
        0.00000000     0.00000000     9.16696473
PRIMCOORD
24 1
Ti      3.03384610     2.91929005     3.40087853     3.60692663    -3.68002878     1.25886682
Ti      4.03312985     2.00695801     5.76608630    -3.60692663     3.68002878    -1.25886682
Ti      5.16079309     2.00695969     1.18256724    -7.42595212     1.30327828     2.07412409
Ti      1.90618289     2.91928857     7.98439764     7.42595212    -1.30327828    -2.07412409
Ti      2.00753072     0.45616607     1.18260398     3.60769076    -3.67968990    -1.25888739
Ti      5.05944525     4.47008214     7.98436089    -3.60769076     3.67968990     1.25888739
Ti      0.87986740     0.45616426     5.76604950     7.42665480    -1.30350505     2.07448764
Ti      6.18710857     4.47008396     3.40091528    -7.42665480     1.30350505    -2.07448764
O       2.30983807     1.73461569     4.67783195    -0.79208879     0.43916258    -1.20138774
O       4.75713783     3.19163238     4.48913288     0.79208879    -0.43916258     1.20138774
O       1.64290451     1.73463560     0.09437904     1.57485064    -0.54148147    -0.90763780
O       5.42407150     3.19161256     9.07258548    -1.57485064     0.54148147     0.90763780
O       3.73082244     0.72850830     0.09434928     0.79202502    -0.43919241    -1.20135251
O       3.33615351     4.19773976     9.07261524    -0.79202502     0.43919241     1.20135251
O       4.39775605     0.72848844     4.67786166    -1.57472722     0.54144264    -0.90779027
O       2.66921981     4.19775970     4.48910312     1.57472722    -0.54144264     0.90779027
O       1.43070927     2.99642339     2.47622589     0.07042048    -1.99063237    -1.88275604
O       5.63626663     1.92982469     6.69073894    -0.07042048     1.99063237     1.88275604
O       3.49345050     1.92977884     2.10728569     2.17664532    -2.04657419    -2.98210334
O       3.57352540     2.99646923     7.05967899    -2.17664532     2.04657419     2.98210334
O       0.40439387     0.53329926     2.10725638     0.07035672    -1.99045136     1.88275784
O       6.66258208     4.39294881     7.05970825    -0.07035672     1.99045136    -1.88275784
O       2.54721000     0.53334515     6.69076815    -2.17658490     2.04679042    -2.98185240
O       4.51976589     4.39290292     2.47619663     2.17658490    -2.04679042     2.98185240
