# total energy = -4987.09944600 eV

CRYSTAL
PRIMVEC
        3.74229592     0.00000000     0.00000000
        1.60287998     3.38164968     0.00000000
       -2.67262338    -1.69084725     4.90798319
PRIMCOORD
6 1
Ti      1.20206545     2.53636742     1.22699575     0.00077493    -0.00077493     0.00000000
Ti      1.47048733    -0.84556479     3.68098714    -0.00077493     0.00077493     0.00000000
O       0.40075887     0.84540798     0.79947030     0.00004757     0.00010439    -2.23701279
O       2.27179378     0.84539452     4.10851264    -0.00004757    -0.00010439     2.23701279
O      -0.40072514    -0.84538669     3.25346174     0.00010439     0.00004757    -2.23701279
O       3.07327773     2.53618915     1.65452120    -0.00010439    -0.00004757     2.23701279
