# total energy = -19911.05624896 eV

CRYSTAL
PRIMVEC
        6.53976661     0.00000000     0.00000000
        1.03823885     6.88241864     0.00000000
        0.00000000     0.00000000    11.73798446
PRIMCOORD
24 1
Ti      2.98561021     4.07851484     4.35470855    -0.19798864    -1.51027144     0.69705512
Ti      4.59239517     2.80390360     7.38327617     0.19798864     1.51027144    -0.69705512
Ti      6.06310606     2.80390593     1.51423687     0.23766849     0.14061651    -0.46469184
Ti      1.51489934     4.07851279    10.22374799    -0.23766849    -0.14061651     0.46469184
Ti      2.46649093     0.63730565     1.51428394    -0.19798864    -1.51027144    -0.69705512
Ti      5.11151446     6.24511300    10.22370091     0.19798864     1.51027144     0.69705512
Ti      0.99578002     0.63730312     7.38322910    -0.23766849    -0.14061651    -0.46469184
Ti      6.58222537     6.24511552     4.35475563     0.23766849     0.14061651     0.46469184
O       2.43545894     2.42341652     5.98980368     1.68034767     1.77205201    -0.39112201
O       5.14254643     4.45900193     5.74818098    -1.68034767    -1.77205201     0.39112201
O       1.56562984     2.42344434     0.12084912    -1.06390746     0.67572113     0.51668883
O       6.01237560     4.45897417    11.61713527     1.06390746    -0.67572113    -0.51668883
O       4.62342713     1.01779253     0.12081105    -1.68034767    -1.77205201    -0.39112201
O       2.95457824     5.86462591    11.61717334     1.68034767     1.77205201     0.39112201
O       5.49325630     1.01776477     5.98984182     1.06390746    -0.67572113     0.51668883
O       2.08474901     5.86465375     5.74814291    -1.06390746     0.67572113    -0.51668883
O       0.86912055     4.18627715     3.17072250     0.48915050     0.82196939     1.15110979
O       6.70888481     2.69614123     8.56726223    -0.48915050    -0.82196939    -1.15110979
O       3.91421451     2.69607722     2.69830720     0.55589765     1.19943961     0.41792372
O       3.66379086     4.18634116     9.03967732    -0.55589765    -1.19943961    -0.41792372
O       0.35000126     0.74506775     2.69826967     0.48915050     0.82196939    -1.15110979
O       7.22800411     6.13735062     9.03971479    -0.48915050    -0.82196939     1.15110979
O       3.14467156     0.74513176     8.56729963    -0.55589765    -1.19943961     0.41792372
O       4.43333381     6.13728661     3.17068502     0.55589765     1.19943961    -0.41792372
