# total energy = -4987.46232902 eV

CRYSTAL
PRIMVEC
        4.01420979     0.00000000     0.00000000
        1.54391970     3.70542739     0.00000000
       -2.77910201    -1.85273854     5.23285562
PRIMCOORD
6 1
Ti      1.15783126     2.77921320     1.30821363     0.00022497    -0.00022497     0.00000000
Ti      1.62119633    -0.92652431     3.92464128    -0.00022497     0.00022497     0.00000000
O       0.38602166     0.92635200     0.85238929    -0.00055716    -0.00070525    -1.75283840
O       2.39300576     0.92633681     4.38046567     0.00055716     0.00070525     1.75283840
O      -0.38598699    -0.92632888     3.46881699    -0.00070525    -0.00055716    -1.75283840
O       3.16501434     2.77901765     1.76403802     0.00070525     0.00055716     1.75283840
