# total energy = -19953.69706244 eV

CRYSTAL
PRIMVEC
        5.28599647     0.00000000     0.00000000
        1.65065682     5.37829599     0.00000000
        0.00000000     0.00000000     9.57145137
PRIMCOORD
24 1
Ti      2.89409716     3.18717325     3.55094019     1.39816770    -2.37895342     1.05041713
Ti      4.04255605     2.19112286     6.02051123    -1.39816770     2.37895342    -1.05041713
Ti      5.23131015     2.19112471     1.23474728    -2.84087490    -0.33752041     0.99932749
Ti      1.70534314     3.18717160     8.33670425     2.84087490     0.33752041    -0.99932749
Ti      2.06876887     0.49802534     1.23478565     1.39766505    -2.38067272    -1.05063516
Ti      4.86788436     4.88027093     8.33666588    -1.39766505     2.38067272     1.05063516
Ti      0.88001474     0.49802334     6.02047286     2.84075894     0.33659584     0.99399168
Ti      6.05663848     4.88027294     3.55097857    -2.84075894    -0.33659584    -0.99399168
O       2.25427556     1.89378949     4.88423837     0.57144872     1.19450952    -0.86259283
O       4.68237765     3.48450668     4.68721305    -0.57144872    -1.19450952     0.86259283
O       1.55120886     1.89381118     0.09854347     0.37489012    -0.59164165     0.51346029
O       5.38544441     3.48448503     9.47290768    -0.37489012     0.59164165    -0.51346029
O       3.85704934     0.79535862     0.09851242    -0.57199276    -1.19546468    -0.86308828
O       3.07960387     4.58293755     9.47293874     0.57199276     1.19546468     0.86308828
O       4.56011610     0.79533696     4.88426943    -0.37487187     0.59158226     0.51408841
O       2.37653707     4.58295927     4.68718200     0.37487187    -0.59158226    -0.51408841
O       1.19607553     3.27138455     2.58548780     0.09054889     0.32698608     0.17888843
O       5.74057768     2.10691162     6.98596362    -0.09054889    -0.32698608    -0.17888843
O       3.48167957     2.10686147     2.20026835     1.30327494    -0.04145571    -0.73829178
O       3.45497364     3.27143469     7.37118292    -1.30327494     0.04145571     0.73829178
O       0.37074717     0.58223649     2.20023778     0.08995805     0.32609262    -0.17862489
O       6.56590599     4.79605969     7.37121349    -0.08995805    -0.32609262     0.17862489
O       2.62964533     0.58228663     6.98599414    -1.30402236     0.04193368    -0.73745719
O       4.30700788     4.79600954     2.58545723     1.30402236    -0.04193368     0.73745719
