# total energy = -19518.40702141 eV

CRYSTAL
PRIMVEC
        7.60600008     0.00000000     0.00000000
        0.00000000     7.60600008     0.00000000
       -1.89786986    -1.89786986     4.85670466
PRIMCOORD
23 1
Ti      3.79096999     6.49619199     1.25958299     0.45808128     1.41479221     0.06521940
Ti      3.72614303     2.82073499     1.20828999     0.51981683    -1.02208331    -0.37332149
Ti      0.07038698     6.76761102     1.29251099    -0.76244447    -0.86622709    -1.11869897
Ti     -0.05305499     2.95243202     1.00035498    -0.47903963     0.09888955     2.14764327
Ti      5.63547424     2.94317925     3.62081479     0.21776378     0.92589959     0.62007832
Ti      5.75000020    -0.98157178     3.61131881    -0.52021818    -0.46697113    -0.42214393
Ti      2.06869124     2.83617421     3.62809781    -1.30546912    -0.35350368     1.40678322
Ti      1.91281621    -1.04981077     3.67593982     0.50789899     0.31093905     0.81432755
O       3.58399602     4.66563500     0.81632200     0.11495664     0.60221455     0.08321430
O       3.74584800     0.86902001     0.90396100     0.06836077     0.82309039    -0.82141377
O      -0.01747401     4.88913402     0.67314902     0.50963629    -0.60858806     1.13996149
O      -0.06944398     0.97221201     0.75841699     0.20145603     0.74673348    -0.02198320
O       5.80060024     4.85154323     3.91751379     0.36668573    -1.15439644     0.39499050
O       5.76607724     1.04413022     4.08722680     0.51716602    -0.61949468    -2.38872696
O       1.85864820     4.67885623     3.99790084    -0.17694056    -0.04458680     1.04022373
O       1.81133822     0.93128121     4.06004281    -0.02651425    -0.46903341     0.58024138
O       3.80582320     2.99662223     3.44088680     0.51555086    -0.53411654    -0.91403368
O       3.82010924    -1.10276978     3.28451180     0.23972281     0.42542260    -0.71941370
O       0.13121125     6.35028422     3.14825781    -2.20915076     1.31971098     0.51444965
O       5.70828802     6.62162398     1.51977500    -0.31835488     0.09242631     1.09132725
O       5.64820799     2.91878502     1.72569802     1.13186174    -0.06260947    -1.46938060
O       1.88014502     6.78238702     1.67509699     1.36298780    -0.29219133    -0.29014139
O       1.77870201     2.88574002     1.83422101    -0.93381370    -0.26631676    -1.35920185
