# total energy = -19517.12573105 eV

CRYSTAL
PRIMVEC
        5.93400000     0.00000000     0.00000000
        0.00000000     9.29699974     0.00000000
        0.00000000     0.00000000     4.64899994
PRIMCOORD
23 1
Ti      4.41311897     7.09017101     2.33823001     2.86263364    -1.01333795     0.65478077
Ti      4.38866702     2.33418402     2.29485202     0.92024958    -0.35978128     0.11534770
Ti      1.41328300     7.08880298     2.14152800    -1.36754123    -1.64419743     0.99198622
Ti      1.47187900     2.29715299     2.40422598    -0.95879429    -0.14850492     0.35371836
Ti      2.98282002     4.49250001     0.16856603    -0.89462030     1.13132335     1.19408580
Ti      3.03286500     0.01014401     0.10055400     0.56186518     0.55960364    -1.44593625
Ti      5.84975599     4.43865199     4.49111901     1.03189310     1.75568719     0.72577718
Ti      0.12507501     0.07727501     0.02098003    -0.66587817     0.17950318    -0.92034034
O       4.47946801     5.51109700     1.04094198    -1.01060950    -0.15400348    -1.18113643
O       4.59741802     0.94951200     1.02322401    -0.62460089    -0.70390172    -0.92486523
O       1.42977502     5.48218598     0.68334299     0.81963457     1.41261551     1.29429278
O       1.55996998     0.93406098     0.93651498    -0.36008313    -0.41275117     0.15140101
O       4.51304600     8.45985599     3.75788900    -0.33865992    -0.70776069    -0.10309459
O       4.23185799     3.84328800     3.56265599     0.75319209     0.33981383     0.63193497
O       1.63031901     8.52377600     3.67308697    -0.49859674    -1.04723462    -0.04494804
O       1.59318601     3.64866899     3.72165301    -0.96791554     0.37506444    -0.08762554
O       3.01043402     1.40617498     3.21164902    -0.21552306    -0.06194253     0.68117804
O       5.93241501     6.06961802     3.26133701     0.27711463     0.30700629    -0.69586367
O       5.86702299     1.46023202     3.33830198     0.44589116     0.44429862    -0.27551206
O       3.01019600     7.82999499     1.39157202    -0.60442930     0.03279649     0.00023603
O       2.84188303     3.05717001     1.28543499     0.87910343     0.54428731     0.43683882
O       0.00893002     7.93107002     1.44309700    -0.51174691     0.12515106    -0.45622263
O       5.89531000     3.39042298     1.56606700     0.46742159    -0.95373513    -1.09603314
