# total energy = -4986.20069209 eV

CRYSTAL
PRIMVEC
        3.97899629     0.00000000     0.00000000
        1.87246195     3.51088276     0.00000000
       -2.92576651    -1.75546381     5.25489916
PRIMCOORD
6 1
Ti      1.40425258     2.63329728     1.31372444     0.00020106    -0.00020106     0.00000000
Ti      1.52143901    -0.87787846     3.94117407    -0.00020106     0.00020106     0.00000000
O       0.46815672     0.87771622     0.85598002    -0.00029388    -0.00046974    -2.54738825
O       2.45753470     0.87770259     4.39891855     0.00029388     0.00046974     2.54738825
O      -0.46811890    -0.87769349     3.48342960    -0.00046974    -0.00029388    -2.54738825
O       3.39381025     2.63311220     1.77146891     0.00046974     0.00029388     2.54738825
