# total energy = -19931.18692918 eV

CRYSTAL
PRIMVEC
        6.04360520     0.00000000     0.00000000
        2.47396045     5.93742513     0.00000000
        0.00000000     0.00000000    11.04860486
PRIMCOORD
24 1
Ti      3.65658293     3.51851275     4.09895360     0.34412352    -2.65742585     0.76955126
Ti      4.86098282     2.41891255     6.94965138    -0.34412352     2.65742585    -0.76955126
Ti      6.22011378     2.41891457     1.42530472    -1.21470605    -0.99045410     0.42307030
Ti      2.29745201     3.51851096     9.62330032     1.21470605     0.99045410    -0.42307030
Ti      2.41960282     0.54980016     1.42534901     0.34412352    -2.65742585    -0.76955126
Ti      6.09796296     5.38762532     9.62325602    -0.34412352     2.65742585     0.76955126
Ti      1.06047176     0.54979797     6.94960703     1.21470605     0.99045410     0.42307030
Ti      7.45709402     5.38762751     4.09899789    -1.21470605    -0.99045410    -0.42307030
O       2.78396272     2.09066839     5.63801851     1.74822276     2.13232514    -0.92070544
O       5.73360296     3.84675693     5.41058647    -1.74822276    -2.13232514     0.92070544
O       1.98013228     2.09069238     0.11375158    -0.02900900    -0.81590852     1.46460580
O       6.53743355     3.84673303    10.93485303     0.02900900     0.81590852    -1.46460580
O       4.49662283     0.87804422     0.11371571    -1.74822276    -2.13232514    -0.92070544
O       4.02094291     5.05938108    10.93488890     1.74822276     2.13232514     0.92070544
O       5.30045334     0.87802027     5.63805431     0.02900900     0.81590852     1.46460580
O       3.21711229     5.05940511     5.41055060    -0.02900900    -0.81590852    -1.46460580
O       1.72438117     3.61147871     2.98450383     0.60490315     2.42955403     2.29635490
O       6.79318451     2.32594660     8.06410115    -0.60490315    -2.42955403    -2.29635490
O       4.21052718     2.32589134     2.53983380     0.95205723     1.77915185     1.10197188
O       4.30703850     3.61153397     8.50877099    -0.95205723    -1.77915185    -1.10197188
O       0.48740103     0.64276595     2.53979848     0.60490315     2.42955403    -2.29635490
O       8.03016472     5.29465935     8.50880626    -0.60490315    -2.42955403     2.29635490
O       3.07005837     0.64282126     8.06413635    -0.95205723    -1.77915185     1.10197188
O       5.44750731     5.29460405     2.98446857     0.95205723     1.77915185    -1.10197188
