# total energy = -39037.17386863 eV

CRYSTAL
PRIMVEC
        7.60600008     0.00000000     0.00000000
        0.00000000     7.60600008     0.00000000
       -3.79573973    -3.79573973     9.71340985
PRIMCOORD
46 1
Ti      1.90095846     4.70751943     6.12803263    -0.19958710     1.11798189     0.48755256
Ti      3.85646001     6.75593800     1.20682899     0.47714730    -0.90853358     1.22971950
Ti      1.93122946     0.82410747     6.20012462     0.23704937    -0.19319122    -1.61800688
Ti      3.74236898     2.79534998     1.26784101     0.38573144    -0.61933322    -0.44760840
Ti     -1.91752054     4.70635646     5.94749662     0.16097246    -0.52202258     1.03263049
Ti      0.07084800     6.61697500     1.12248300    -0.51740231     0.65375207     1.68240429
Ti     -1.83011957     0.87257344     5.97122762    -0.35401610     1.48524894     1.14506796
Ti     -0.10756300     2.89176698     1.19632001    -0.37943480     0.31995154    -0.10702375
Ti      3.82891147     0.98121543     8.50358662     0.73346453     1.06346600    -0.75346283
Ti      5.67340899     2.89653799     3.68457298    -1.04000981    -0.94247498    -1.30341892
Ti      3.95542547    -2.75850655     8.52742060    -0.38861776    -0.58654727    -0.71573291
Ti      5.60429400    -0.97275399     3.67854602     0.21211018     0.34764362    -2.29049844
Ti      0.01933143     1.03515743     8.40632061    -1.00823508    -0.88671827    -0.36124167
Ti      1.80939402     2.75482998     3.56391802     0.83010205     0.31340885     1.41683803
Ti      0.01909647    -2.81094357     8.49185264     0.64970567     0.33529692     0.61083572
Ti      1.82584799    -1.00565998     3.68414101    -0.09813930    -0.06084621     0.10941359
O       1.77683147    -0.97724454     5.78584461    -0.08322818    -0.58756722    -0.78039720
O       3.93255798     0.89199202     0.94555598    -0.94984505     2.48597383    -1.36382958
O      -1.94075053     2.76931647     5.49347264     0.03444971     1.50988963     0.74552661
O      -0.22085800     4.83375202     0.79684198     0.72360846    -0.86717531    -0.74365998
O      -1.78770855    -0.96405755     5.60099664     0.22236271    -1.10948568     1.62455676
O       0.14575103     1.00197400     0.73799901    -0.15962803     0.98514760     0.87226584
O       3.75738443     2.98447947     8.93429864    -0.02342764    -1.27857331    -0.49699391
O       5.48713903     4.75072401     3.92588997     0.48200515    -1.15592573     1.43092023
O       4.00916247    -0.82490055     8.89204664     0.14002722    -1.01778339     0.11951315
O       5.68022601     0.83633099     4.03739900     0.40454986     1.52739191     0.03754660
O       0.18529946     2.80193946     9.03040564    -0.24943618    -0.49639124    -0.02257069
O       2.07673098     4.62760197     4.24523903    -0.67865861    -0.73366173    -0.57161918
O      -0.25851256    -0.90948355     8.83623262     0.56215032     0.32433913     0.71208811
O       1.77511498     0.92703700     4.08304001     0.04276517     0.22751495     0.04440657
O       1.97672045     0.69146046     8.05056660    -1.00998446     0.49275236     1.15163276
O       3.84208603     2.63647700     3.21134601    -0.66525493     0.29470278    -0.03332562
O       1.86291744    -2.86662656     8.14148962     0.79096907     0.40365898    -0.26432184
O       3.73117100    -0.99011900     3.35032600    -0.29530442     0.16024612    -0.21106914
O      -1.87965453     1.24301445     8.01346863     0.22950652    -0.82583607     0.13019634
O      -0.09930101     2.88025298     3.11790098    -0.13748774    -0.27670145     0.65171756
O      -1.80161755    -3.01350754     8.04870464    -1.41800711     0.24225046    -0.28260908
O      -0.09882602    -1.16436802     3.10116400     2.23017751     0.31513509     1.23100146
O       3.82434345     4.73702345     6.48815564     0.37188861    -0.10447322     0.15397391
O       5.69015200     6.69514501     1.73257902    -0.75630365    -0.15586522    -1.15853309
O       3.80476347     1.15068545     6.49153263     0.16072743    -0.44054815    -0.46059376
O       5.58964801     3.02140498     1.40913499     0.70678367    -0.06332758     0.20201319
O      -0.00137755     4.49182245     6.43314062     0.17911520     0.38965469    -0.05498383
O       1.97981302     6.52221301     1.66076898    -0.98777501    -0.05820980    -0.28670845
O       0.08940444     1.41150443     6.46163163     0.07565628    -1.11803743     0.04527843
O       1.86825203     3.17449897     1.81694898     0.35675715     0.01382303    -2.53888972
