# total energy = -19960.66173260 eV

CRYSTAL
PRIMVEC
        5.93400000     0.00000000     0.00000000
        0.00000000     9.29699974     0.00000000
        0.00000000     0.00000000     4.64899994
PRIMCOORD
24 1
Ti      4.42027297     7.02709599     2.24183899     0.07592985    -0.40427630     0.69417754
Ti      4.45759198     2.26029902     2.23925301    -0.05675018     0.48056224     0.89168873
Ti      1.44749700     6.96758901     2.37322302    -0.09437186    -0.58009791     0.25268271
Ti      1.52317099     2.35734600     2.36501198     0.09028972    -0.33297392     0.06911488
Ti      2.95864900     4.67109902     4.60297301     1.46405636     0.19074019    -0.07707322
Ti      2.93011698     9.27426899     0.07237398     0.34224712     0.07868633    -0.75519396
Ti      0.04003199     4.59376098     0.01725599    -1.48231917     0.28300477    -0.29799482
Ti      0.01611900     0.01005802     4.63639198    -0.69490748    -0.20376000    -0.50170186
O       4.35577500     5.60886900     0.86034600     0.58757519    -0.05353964     0.16937123
O       4.44055999     0.84273001     0.82069798     0.86824643     0.98062708     1.19234053
O       1.46810602     5.53179502     0.85134899    -0.04318915     0.63411964     0.51066781
O       1.44082101     0.93716100     0.94232800     0.30014864    -0.34410269    -0.56854748
O       4.44640200     8.35134502     3.69447097     0.61325615     0.28509174     0.59171673
O       4.45824700     3.77683699     3.71397502    -0.18244683    -0.31542820     0.51219994
O       1.66315398     8.33344899     3.72539398    -1.86158171     0.26644532     0.37226374
O       1.41498700     3.65813301     3.79325302     0.56984666     0.23593223    -0.07759952
O       3.01646601     6.06401002     3.22235702    -0.75328440    -0.09086076    -0.40011754
O       3.02350301     1.36788599     3.35876299    -0.41231923     1.10265734    -1.68452854
O       5.88112202     6.01643799     3.20882802     0.67122118     0.79956530    -0.60158951
O       5.86754698     1.49326401     3.20073098     0.75415292    -1.23570683     0.83555922
O       2.89064602     7.93456798     1.50393598     0.51143837    -0.26902748    -0.55724337
O       3.00314900     3.34669500     1.56671498    -0.57257332    -0.90258224    -0.57483280
O       0.05509201     8.01262999     1.42042001    -0.16316612    -1.12978274     0.30373456
O       0.05891299     3.18153798     1.42463401    -0.53149941     0.52470630    -0.29909500
