# total energy = -19959.87897394 eV

CRYSTAL
PRIMVEC
        7.60600008     0.00000000     0.00000000
        0.00000000     7.60600008     0.00000000
       -1.89786986    -1.89786986     4.85670466
PRIMCOORD
24 1
Ti      3.66575501     6.72431501     1.29663301    -0.54979950    -0.56159393     1.70185392
Ti      3.76167998     3.02778299     1.25032498     0.58506991    -0.04797552    -0.46354076
Ti     -0.00254402     6.58724900     1.18679402     1.13975143    -1.29342863    -0.91255684
Ti      0.11754101     2.65122099     1.05815399    -1.51875943     2.54087307     0.89141671
Ti      5.78503121     2.84673024     3.57554384     0.50730970    -1.22901039     0.30198878
Ti      5.77564821    -1.09991079     3.52480384    -1.00906812     1.15212769     0.07323147
Ti      1.93984420     2.98409920     3.69256980    -1.10551615    -0.63202624    -0.21956998
Ti      1.76403723    -0.96228877     3.80018879     1.93012786     0.68770222    -0.87325134
O       3.59846197     4.85817202     0.88335601     0.70238168    -0.69855228    -0.58602970
O       3.73844698     0.92323602     0.88827497    -0.19548490     1.96592226     0.37774919
O       0.25344299     4.60060499     0.67202500    -1.31282762     1.06197913    -0.25537723
O       0.30698101     0.84822901     0.70511900    -0.78820873    -0.21838701     0.11888940
O       5.88965421     4.68152720     4.02330680    -0.87446131     0.81168497     0.43156214
O       5.66892321     0.82819621     3.80852984    -0.31067397    -0.17965719     1.21562728
O       1.66538822     4.85300524     4.23502082     0.09285131    -1.36230106    -1.13797017
O       2.02516922     1.12381420     4.19244381    -0.33451993    -0.93217565    -0.88921276
O       3.76677722     3.06374921     3.10304782     0.03067301    -0.00138274     2.24100237
O       3.58331020    -1.17444276     3.22513483     1.68224154     0.63481538     0.54344708
O      -0.01317678     2.96151021     3.08333279     0.89545360    -0.94091946     0.88869185
O       0.00827321    -0.84941775     3.19741679    -0.97436387     0.01919663     0.14737826
O       5.71197199     6.51308401     1.61632503    -0.40215694     0.05389806    -0.17944147
O       5.75725501     2.91967801     1.69447599    -0.71244035    -0.46893982    -2.22508775
O       1.77044203     6.49574002     1.71623999     0.58542267     0.67667861    -0.19268574
O       1.79989000     3.02751999     1.74969902     1.93699759    -1.03852757    -0.99811496
