# total energy = -19074.06226369 eV

CRYSTAL
PRIMVEC
        5.17600016     0.00000000     0.00000000
        0.00000000     5.50899976     0.00000000
        0.00000000     0.00000000     9.26300011
PRIMCOORD
22 1
Ti      1.98365198     3.34491199     3.31153498    -1.61939399     1.22841210    -0.35512990
Ti      3.63795199     2.24726100     5.91253499    -0.16441208    -0.78316166    -1.60819786
Ti      4.23515502     2.31018202     1.30357201     2.52226342    -1.15415167    -1.18938351
Ti      0.80818098     3.12578101     8.07678601    -0.44857385     1.25552490     1.76185989
Ti      1.77243501     0.42612601     1.20841102    -1.32295519     0.53078130    -1.22326809
Ti      3.27380501     4.97793499     7.97868602     0.59731428     1.09757118     1.88506643
Ti      0.96516199     0.11965100     6.14433701    -0.78798016    -0.19560086    -0.44234869
Ti      4.38508200     4.94461301     3.45056799     0.82234991     1.92033607     0.26011166
O       3.37970698     3.63170701     4.52749302     0.17778568    -0.95075239     1.11652613
O       0.85826200     1.92550302     0.35480297    -0.30751408     1.31113043    -1.57142027
O       4.29354402     3.57941498     8.91387700    -1.05669654    -0.16619488     0.06784501
O       3.28428902     0.82384098     0.10352803     1.27411116     0.88638634     0.02966334
O       1.52209703     4.85271001     8.92584498    -0.58884223    -0.91216552     1.10242774
O       3.89154298     0.91898498     4.64262701     0.66460290     0.28829482     0.30593645
O       1.02201098     5.07126402     4.40543199    -0.53136829    -0.97655188     0.45171240
O       0.08385602     3.48350102     2.48466102     0.54255053    -0.70935888     0.36831452
O       0.20188102     2.25812601     6.55689798    -0.14301690    -1.84005385    -0.70883875
O       2.67351200     1.95717301     2.32008902    -0.26166641    -0.28046041     0.26938718
O       2.11407798     4.03868998     6.87884900    -0.15265082    -1.86448294    -1.66286004
O       5.12682202     0.63596400     2.08719202    -0.03532311     0.04472127     0.44194503
O       2.49110000     0.96435098     6.73414701     0.83162851     1.23705512     0.92733838
O       2.76539501     4.68469401     2.31605801    -0.01221274     0.03272090    -0.22668705
