# total energy = -19880.73280032 eV

CRYSTAL
PRIMVEC
        6.52144835     0.00000000     0.00000000
        0.00002136     2.97462555     0.00000000
        0.00000000     0.00000000     9.92513467
PRIMCOORD
24 1
Ti      2.36372391     1.76276036     3.68215418    -1.74348910     1.25111546    -3.44160695
Ti      4.15774550     1.21186524     6.24298064     1.74348910    -1.25111546     3.44160695
Ti      5.62433647     1.21186625     1.28037354    -1.74266429    -1.25140420     3.44394845
Ti      0.89713295     1.76275944     8.64476138     1.74266429     1.25140420    -3.44394845
Ti      2.36371338     0.27544763     1.28041335    -1.74452962     1.24545286     3.44095235
Ti      4.15775604     2.69917801     8.64472156     1.74452962    -1.24545286    -3.44095235
Ti      0.89712242     0.27544652     6.24294083     1.74286998     1.24538704     3.44515224
Ti      5.62434700     2.69917912     3.68219399    -1.74286998    -1.24538704    -3.44515224
O       2.06408702     1.04741621     5.06472029     9.25460981    -2.94422454     6.98828927
O       4.45738240     1.92720934     4.86041453    -9.25460981     2.94422454    -6.98828927
O       1.19669017     1.04742821     0.10218481    -9.25567425    -2.94607471     6.99324816
O       5.32477930     1.92719739     9.82294972     9.25567425     2.94607471    -6.99324816
O       4.45737191     0.43989656     0.10215262    -9.25586297     2.94488403     6.98938456
O       2.06409751     2.53472904     9.82298191     9.25586297    -2.94488403    -6.98938456
O       5.32476881     0.43988456     5.06475249     9.25596042     2.94578418     6.99153451
O       1.19670056     2.53474104     4.86038233    -9.25596042    -2.94578418    -6.99153451
O       0.23695219     1.80933587     2.68102651     5.29818272    -2.03926737     1.32268086
O       6.28451722     1.16528968     7.24410831    -5.29818272     2.03926737    -1.32268086
O       3.49768466     1.16526197     2.28157245     5.29766901     2.03938024    -1.32311589
O       3.02378476     1.80936363     7.64356222    -5.29766901    -2.03938024     1.32311589
O       0.23694170     0.32202309     2.28154078     5.29815778    -2.03884417    -1.32061266
O       6.28452771     2.65260250     7.64359389    -5.29815778     2.03884417     1.32061266
O       3.02377427     0.32205081     7.24413993    -5.29731009    -2.03966949    -1.32433588
O       3.49769515     2.65257479     2.68099484     5.29731009     2.03966949     1.32433588
