# total energy = -19518.23600785 eV

CRYSTAL
PRIMVEC
        5.93400000     0.00000000     0.00000000
        0.00000000     9.29699974     0.00000000
        0.00000000     0.00000000     4.64899994
PRIMCOORD
23 1
Ti      4.51567802     7.05561002     2.32410499     0.17123528     0.76363515    -0.52647933
Ti      4.45383498     2.32714702     2.33454598     0.30533533    -0.07646258    -0.61078404
Ti      1.42716300     6.99837897     2.22910598    -0.18384089     0.74493551    -0.38347735
Ti      1.48629998     2.26442401     2.39700302    -0.24494266     0.38555943    -0.08942609
Ti      3.00937900     4.52373099     0.14143500    -1.02747363    -0.12060047     0.56224699
Ti      2.98391399     0.04625999     0.00325597     0.01423903    -0.34680955     0.02642529
Ti      5.91340802     4.60344001     4.59589299     0.51818547    -0.25811417     0.24378181
Ti      0.02738201     0.07957302     4.59322202    -0.11157461    -0.39319972     0.33236997
O       4.43026897     5.52902298     0.89361099    -0.38643361     0.62778829     0.00355275
O       4.50412799     0.89490498     0.87397301    -0.13322536     0.23746409     0.49196226
O       1.38523401     5.46987298     0.88545901     1.10260874     1.29042070     0.54284107
O       1.45255599     1.00184202     0.95128400     0.09514602    -1.08666558    -0.81352922
O       4.39806399     8.45191701     3.64817998     0.49244383    -0.68773204     0.55471288
O       4.38386399     3.72971402     3.72026498    -0.13402523     0.36917250    -0.18145490
O       1.64501199     8.40997400     3.65858799    -1.10199656    -0.43629117     0.51155999
O       1.46790700     3.62872001     3.83168499    -0.06102953     0.45676899    -0.92533394
O       3.02430000     1.42153202     3.30375703    -0.72047428     0.34004395    -0.46514924
O       5.89729198     6.10052002     3.18900700     0.32877531    -0.48506373     0.44624700
O       5.89593300     1.38988098     3.22718698     0.14455622     0.13679251    -0.09100217
O       2.97433599     7.82741700     1.45189002    -0.35198852    -0.34374274    -0.26421386
O       2.90407400     3.16597599     1.34686300     0.45321135    -0.15799743     0.96240901
O       5.92811000     7.99710599     1.43614700     0.24959482    -0.86650374    -0.24481642
O       5.82650399     3.27024598     1.45041700     0.58167323    -0.09339870    -0.08244194
