# total energy = -19961.08638018 eV

CRYSTAL
PRIMVEC
        7.60600008     0.00000000     0.00000000
        0.00000000     7.60600008     0.00000000
       -1.89786986    -1.89786986     4.85670466
PRIMCOORD
24 1
Ti      3.84105201     6.73898698     1.10351602    -0.29317760     0.61255553     0.02034309
Ti      3.77349402     2.93028298     1.24360300     1.21325570    -1.04161804    -1.10115350
Ti     -0.08993500     6.63307998     1.21108098     0.25092202    -0.44433050     0.43323156
Ti     -0.00648401     2.72919198     1.25551398    -0.75330831     0.76980863     0.68380494
Ti      5.61213720     2.79348622     3.72318879     1.10175282    -0.75021861    -0.58902890
Ti      5.66591320    -0.97657979     3.66298980     0.05817560     0.65542458    -0.12756533
Ti      1.93115522     2.89001122     3.59878779    -1.14029290    -0.43219952     0.75621700
Ti      1.91662624    -0.87477275     3.48711779     0.29282459     0.34273178     1.23081736
O       3.96647999     4.84270200     0.80959600    -0.40361681    -0.91728125     0.00312723
O       3.94637898     1.09034898     0.69519502    -0.67806572    -1.02209359    -0.31172118
O      -0.13752698     4.66776600     0.87672901     0.09384967     1.08996534    -0.39555897
O      -0.10810901     0.89995201     0.94069898     0.40386235    -0.65186437    -1.11080311
O       5.61434720     4.70111221     4.11338081    -0.12461190     0.10587652    -0.02995311
O       5.83144820     0.86932921     4.14472980    -0.31976025     0.00108526    -0.07195003
O       2.13883221     4.78586021     4.01615782    -0.47907100     0.28473024    -0.57202181
O       1.93294622     1.00647825     4.07533079    -0.41578584    -0.29818277    -0.11169082
O       3.78117524     2.53497424     3.24238681     0.93776935     1.06630347    -0.38524653
O       3.84563321    -0.91894180     3.08708979    -1.21022591    -0.02844335     1.08944006
O       0.01468324     2.75225321     3.24219381     0.20469614     0.58098186     0.72583478
O       0.00176322    -1.01139177     3.32058783     0.21559145    -0.33220465    -1.12513162
O       5.62147501     6.92999700     1.72686401     2.36274287    -0.98312182    -0.41171553
O       5.75892801     2.75069298     1.71125202    -1.52392246     0.63999152     0.40938354
O       1.91672101     6.69497901     1.43655399    -0.71700020     0.07767100     1.16737717
O       1.89381198     2.76546703     1.65184002     0.92339610     0.67443301    -0.17603630
