# total energy = -19072.53112184 eV

CRYSTAL
PRIMVEC
        5.93400000     0.00000000     0.00000000
        0.00000000     9.29699974     0.00000000
        0.00000000     0.00000000     4.64899994
PRIMCOORD
22 1
Ti      4.38537400     6.77395601     2.45091502     0.12165179     0.69925213    -1.40376757
Ti      4.41206999     2.38033299     2.13218003     0.22220176    -0.17396245     0.10303186
Ti      1.50820702     7.19528498     2.64488198    -0.05326479     0.49423203    -0.75136815
Ti      1.65925702     2.38631899     1.97017903    -1.46470634     2.03567683     1.39607174
Ti      3.00199597     4.61957399     4.42862799     0.34833627    -0.64171982     0.45092358
Ti      2.99815198     0.13644899     0.15492998     0.50842890     0.17168085    -0.76731671
Ti      5.77663698     4.51129702     4.23017102     1.05590541    -1.49141059     1.08228879
Ti      5.89248398     9.20804198     0.29949400    -0.20684738    -0.68190798     1.05859324
O       4.34820999     5.39387101     0.89965901     0.46487131     0.57141709     1.05802708
O       4.46551900     0.70003303     1.31055302     0.13711853     0.29699364    -0.70361555
O       1.58287197     0.71619802     1.36391700    -0.85861970    -0.78219801    -1.44107789
O       4.46706198     8.42221900     4.11430999     0.04037148    -0.07244831    -1.36329788
O       4.29974799     4.02924702     3.13015900     0.11780902    -0.32313739     0.84183965
O       1.47199299     8.26820800     4.02452502     0.08688326     2.57501528     1.36883655
O       1.58724298     4.01578999     3.27094999    -1.33128660    -0.43293305     0.05074485
O       2.93292300     6.31513298     3.58739201     0.14182262    -0.80065982    -0.40403179
O       3.05083401     1.50484500     3.32502900     0.01801264    -0.05976352     0.25780410
O       5.88165199     6.24220098     3.62916299     0.42456565    -0.20238009    -1.33748887
O       2.98786498     7.95333901     1.69725501     0.01906757    -1.49907506    -0.07756430
O       3.06615798     2.88735798     0.88535900     0.13341845     1.54334715     0.02773141
O       0.02165499     8.04539802     1.72546799    -0.38711521    -2.03822890     0.18623201
O       5.91969602     2.84186001     0.91821799     0.46137538     0.81220999     0.36740384
