# total energy = -19946.17201766 eV

CRYSTAL
PRIMVEC
        5.51577942     0.00000000     0.00000000
        2.25789404     5.41887272     0.00000000
        0.00000000     0.00000000    10.08366120
PRIMCOORD
24 1
Ti      3.33723070     3.21121906     3.74096638     1.47006143    -3.21109769     1.06379690
Ti      4.43644283     2.20765381     6.34269493    -1.47006143     3.21109769    -1.06379690
Ti      5.67687240     2.20765566     1.30082396    -3.32935923    -0.35198775     0.94800131
Ti      2.09680118     3.21121743     8.78283741     3.32935923     0.35198775    -0.94800131
Ti      2.20828379     0.50178268     1.30086438     1.47006143    -3.21109769    -1.06379690
Ti      5.56538978     4.91709036     8.78279698    -1.47006143     3.21109769     1.06379690
Ti      0.96785414     0.50178068     6.34265445     3.32935923     0.35198775     0.94800131
Ti      6.80581943     4.91709235     3.74100681    -3.32935923    -0.35198775    -0.94800131
O       2.54082187     1.90807726     5.14561514     1.09092410     1.75451399    -1.05287356
O       5.23285161     3.51079562     4.93804617    -1.09092410    -1.75451399     1.05287356
O       1.80719496     1.90809916     0.10381695     0.50157048    -0.81021687     0.83258625
O       5.96647865     3.51077381     9.97984403    -0.50157048     0.81021687    -0.83258625
O       4.10390468     0.80135913     0.10378421    -1.09092410    -1.75451399    -1.05287356
O       3.66976886     4.61751374     9.97987677     1.09092410     1.75451399     1.05287356
O       4.83753165     0.80133728     5.14564782    -0.50157048     0.81021687     0.83258625
O       2.93614179     4.61753567     4.93801343     0.50157048    -0.81021687    -0.83258625
O       1.57378019     3.29606573     2.72384847     0.45621826     1.18229600     1.10168469
O       6.19989329     2.12280716     7.35981284    -0.45621826    -1.18229600    -1.10168469
O       3.84279555     2.12275673     2.31801426     1.45542336     0.64060242    -0.19306061
O       3.93087794     3.29611615     7.76564689    -1.45542336    -0.64060242     0.19306061
O       0.44483325     0.58662918     2.31798202     0.45621826     1.18229600    -1.10168469
O       7.32884029     4.83224369     7.76567907    -0.45621826    -1.18229600     1.10168469
O       2.80193100     0.58667967     7.35984497    -1.45542336    -0.64060242    -0.19306061
O       4.97174248     4.83219322     2.72381629     1.45542336     0.64060242     0.19306061
