# total energy = -19938.19499607 eV

CRYSTAL
PRIMVEC
        5.97799414     0.00000000     0.00000000
        0.00003276     6.36239354     0.00000000
        0.00000000     0.00000000    10.69929503
PRIMCOORD
24 1
Ti      2.16675477     3.77034853     3.96936222     0.04336630    -0.78683911     0.60386777
Ti      3.81127214     2.59204507     6.72993312    -0.04336630     0.78683911    -0.60386777
Ti      5.15564719     2.59204726     1.38024269     0.04307654     0.78676866    -0.60369396
Ti      0.82237972     3.77034658     9.31905277    -0.04307654    -0.78676866     0.60369396
Ti      2.16673851     0.58915188     1.38028560     0.04336630    -0.78683911    -0.60386777
Ti      3.81128840     5.77324191     9.31900986    -0.04336630     0.78683911     0.60386777
Ti      0.82236346     0.58914951     6.72989021    -0.04307654    -0.78676866    -0.60369396
Ti      5.15566345     5.77324428     3.96940513     0.04307654     0.78676866     0.60369396
O       1.89208443     2.24030698     5.45976847     1.30210225     1.19234362     0.03601526
O       4.08594248     4.12208668     5.23952687    -1.30210225    -1.19234362    -0.03601526
O       1.09697067     2.24033261     0.11015524    -1.30197447     1.19260124     0.03531386
O       4.88105630     4.12206105    10.58913979     1.30197447    -1.19260124    -0.03531386
O       4.08592622     0.94088985     0.11012053    -1.30210225    -1.19234362     0.03601526
O       1.89210069     5.42150375    10.58917451     1.30210225     1.19234362    -0.03601526
O       4.88104004     0.94086422     5.45980319     1.30197447    -1.19260124     0.03531386
O       1.09698681     5.42152944     5.23949215    -1.30197447     1.19260124    -0.03531386
O       0.21721426     3.86996843     2.89014658     0.45821960    -0.26680245     0.31022659
O       5.76081265     2.49242517     7.80914876    -0.45821960     0.26680245    -0.31022659
O       3.20621612     2.49236588     2.45953510     0.45823914     0.26688292    -0.31038446
O       2.77181079     3.87002773     8.23976005    -0.45823914    -0.26688292     0.31038446
O       0.21719800     0.68877160     2.45950094     0.45821960    -0.26680245    -0.31022659
O       5.76082891     5.67362200     8.23979422    -0.45821960     0.26680245     0.31022659
O       2.77179452     0.68883090     7.80918286    -0.45823914    -0.26688292    -0.31038446
O       3.20623238     5.67356271     2.89011241     0.45823914     0.26688292     0.31038446
