# total energy = -19953.91239615 eV

CRYSTAL
PRIMVEC
        4.96749913     0.00000000     0.00000000
        1.04694100     5.18222447     0.00000000
        0.00000000     0.00000000     8.93596277
PRIMCOORD
24 1
Ti      2.42089570     3.07098142     3.31517857     1.61680540    -1.04587116     0.58883864
Ti      3.59354419     2.11124317     5.62078456    -1.61680540     1.04587116    -0.58883864
Ti      4.71067203     2.11124503     1.15276729    -2.65641541    -0.45592258     1.41329659
Ti      1.30376788     3.07097976     7.78319594     2.65641541     0.45592258    -1.41329659
Ti      1.89742532     0.47986938     1.15280312     1.61652978    -1.04230453    -0.58877384
Ti      4.11701458     4.70235536     7.78316011    -1.61652978     1.04230453     0.58877384
Ti      0.78029741     0.47986738     5.62074873     2.65634547     0.45968873     1.41321560
Ti      5.23414249     4.70235737     3.31521440    -2.65634547    -0.45968873    -1.41321560
O       1.94089047     1.82474935     4.55995354    -0.72338940    -0.15828180    -0.64738422
O       4.07354941     3.35747524     4.37600959     0.72338940     0.15828180     0.64738422
O       1.28018368     1.82477022     0.09200076     0.97856917    -0.92774281     0.05179875
O       4.73425626     3.35745441     8.84396212    -0.97856917     0.92774281    -0.05179875
O       3.55007902     0.76636304     0.09197175     0.72325802     0.15822832    -0.64746675
O       2.46436087     4.41586155     8.84399113    -0.72325802    -0.15822832     0.64746675
O       4.21078587     0.76634222     4.55998255    -0.97862522     0.92795081     0.05186740
O       1.80365397     4.41588243     4.37598058     0.97862522    -0.92795081    -0.05186740
O       0.81728954     3.15212262     2.41382657    -0.51538579    -0.64482417    -1.06958163
O       5.19715034     2.03010197     6.52213656     0.51538579     0.64482417     1.06958163
O       3.07436241     2.03005356     2.05418342     0.80648388    -1.13601536    -1.19638848
O       2.94007748     3.15217103     6.88177955    -0.80648388     1.13601536     1.19638848
O       0.29381915     0.56101043     2.05415487    -0.51538322    -0.64484448     1.06943456
O       5.72062074     4.62121421     6.88180811     0.51538322     0.64484448    -1.06943456
O       2.41660708     0.56105878     6.52216506    -0.80641858     1.13588757    -1.19652166
O       3.59783281     4.62116581     2.41379801     0.80641858    -1.13588757     1.19652166
