# total energy = -19932.76017264 eV

CRYSTAL
PRIMVEC
        6.76212054     0.00000000     0.00000000
        0.00002380     3.87527607     0.00000000
        0.00000000     0.00000000    10.23052319
PRIMCOORD
24 1
Ti      2.45095765     2.29648513     3.79545127    -0.13827372     1.18892379    -0.21796535
Ti      4.31118685     1.57879126     6.43507234     0.13827372    -1.18892379     0.21796535
Ti      5.83190203     1.57879263     1.31976969    -0.13542700    -1.18839852     0.21939129
Ti      0.93024247     2.29648387     8.91075403     0.13542700     1.18839852    -0.21939129
Ti      2.45094585     0.35884715     1.31981069    -0.13827372     1.18892379     0.21796535
Ti      4.31119864     3.51642934     8.91071303     0.13827372    -1.18892379    -0.21796535
Ti      0.93023068     0.35884562     6.43503134     0.13542700     1.18839852     0.21939129
Ti      5.83191382     3.51643082     3.79549228    -0.13542700    -1.18839852    -0.21939129
O       2.14026229     1.36455064     5.22055784     2.66717959    -0.70449590     1.33860576
O       4.62188220     2.51072569     5.00996577    -2.66717959     0.70449590    -1.33860576
O       1.24085438     1.36456626     0.10532895    -2.66620591    -0.70476483     1.33741688
O       5.52129016     2.51071013    10.12519434     2.66620591     0.70476483    -1.33741688
O       4.62187041     0.57308766     0.10529577    -2.66717959     0.70449590     1.33860576
O       2.14027408     3.30218873    10.12522753     2.66717959    -0.70449590    -1.33860576
O       5.52127837     0.57307204     5.22059103     2.66620591     0.70476483     1.33741688
O       1.24086602     3.30220434     5.00993253    -2.66620591    -0.70476483    -1.33741688
O       0.24569794     2.35716261     2.76351964     0.14013597     0.12801579     1.28967868
O       6.51644655     1.51811378     7.46700398    -0.14013597    -0.12801579    -1.28967868
O       3.62676656     1.51807754     2.35177467     0.14318505    -0.12807827    -1.28938095
O       3.13537794     2.35719885     7.87874874    -0.14318505     0.12807827     1.28938095
O       0.24568615     0.41952452     2.35174201     0.14013597     0.12801579    -1.28967868
O       6.51645834     3.45575186     7.87878139    -0.14013597    -0.12801579     1.28967868
O       3.13536615     0.41956076     7.46703658    -0.14318505     0.12807827    -1.28938095
O       3.62677835     3.45571563     2.76348698     0.14318505    -0.12807827     1.28938095
