# total energy = -19961.83260728 eV

CRYSTAL
PRIMVEC
        7.60600008     0.00000000     0.00000000
        0.00000000     7.60600008     0.00000000
       -1.89786986    -1.89786986     4.85670466
PRIMCOORD
24 1
Ti      3.86220497     6.57679801     1.21913501    -1.01593400     0.83369105    -0.04318092
Ti      3.80658802     2.79678501     1.22385998     0.05813395    -0.79703276    -0.95083030
Ti     -0.01830202     6.67079799     1.16003803     1.00524026     0.93373091     1.06405375
Ti     -0.01480903     2.93282399     1.22269399    -0.20369161    -0.94280151     0.06537546
Ti      5.65738323     2.87437721     3.64967279     1.15189681    -0.21018982    -0.28647036
Ti      5.70264122    -0.91724976     3.63511681     0.42938981     0.04849462     0.37806363
Ti      1.92455320     2.82293922     3.63313981    -1.00931803    -0.45576214     0.10595057
Ti      1.92520123    -0.99202679     3.64224584    -0.48389876     0.68026221    -0.42061875
O       3.82641799     4.62210700     0.79414000     0.12672535     1.84198784     0.00017998
O       3.80997301     0.89621602     0.76116300     0.08669609     0.40488102     0.39505940
O      -0.08028100     4.79803700     0.80392301     0.26093981    -1.10499241    -0.39024630
O      -0.04695601     0.91340200     0.82153101     0.26997082     1.18136629    -0.61576067
O       5.56789423     4.80093324     4.05749879     0.24417107    -0.52968139    -0.45664789
O       5.63296821     0.96607022     4.04100280     0.51827905     0.35634577     0.70987722
O       1.92619021     4.76819220     4.09242883     0.41028574    -1.46563527    -0.27049507
O       1.84704324     0.92313124     4.08308483     0.17811658     0.49269194    -0.38380439
O       3.86917821     2.85904223     3.15534382    -1.66075302    -0.02229661     0.75264548
O       3.81392824    -0.72345277     3.18587782     0.38489917    -0.95418096    -0.11705877
O       0.01851925     2.90376422     3.28998879    -0.40593466     0.12759824    -0.40015353
O       0.02942924    -0.99536479     3.24696879    -0.91036626     0.12874932    -0.29881938
O       5.72907400     6.62147602     1.56651098    -0.52600831    -0.12211253     0.83943181
O       5.71079299     2.74450399     1.62221001     0.37505030     0.37348553     0.29554893
O       1.92139899     6.70071598     1.63066901    -0.03158833    -0.67151892    -0.19012029
O       1.84054700     2.85733802     1.63875002     0.74769867    -0.12708042     0.21801986
