# total energy = -19939.47206621 eV

CRYSTAL
PRIMVEC
        5.80608359     0.00000000     0.00000000
        2.37673056     5.70407655     0.00000000
        0.00000000     0.00000000    10.61438021
PRIMCOORD
24 1
Ti      3.51287443     3.38023059     3.93785935     0.77388588    -2.91323168     0.91571056
Ti      4.66993983     2.32384612     6.67652098    -0.77388588     2.91323168    -0.91571056
Ti      5.97565516     2.32384806     1.36928838    -1.99620086    -0.78956345     0.60739686
Ti      2.20715914     3.38022887     9.24509201     1.99620086     0.78956345    -0.60739686
Ti      2.32450926     0.52819229     1.36933093     0.77388588    -2.91323168    -0.91571056
Ti      5.85830503     5.17588459     9.24504946    -0.77388588     2.91323168     0.91571056
Ti      1.01879383     0.52819019     6.67647837     1.99620086     0.78956345     0.60739686
Ti      7.16402045     5.17588669     3.93790190    -1.99620086    -0.78956345    -0.60739686
O       2.67454934     2.00850238     5.41643699     1.55797339     2.04440907    -0.98008998
O       5.50826486     3.69557434     5.19794334    -1.55797339    -2.04440907     0.98008998
O       1.90231049     2.00852543     0.10928100     0.15654604    -0.83152490     1.27590707
O       6.28050384     3.69555138    10.50509898    -0.15654604     0.83152490    -1.27590707
O       4.31989966     0.84353593     0.10924654    -1.55797339    -2.04440907    -0.98008998
O       3.86291459     4.86054078    10.50513344     1.55797339     2.04440907     0.98008998
O       5.09213858     0.84351293     5.41647139    -0.15654604     0.83152490     1.27590707
O       3.09067556     4.86056386     5.19790888     0.15654604    -0.83152490    -1.27590707
O       1.65661073     3.46954287     2.86720892     0.55914830     2.04471297     1.92260584
O       6.52620346     2.23453385     7.74717141    -0.55914830    -2.04471297    -1.92260584
O       4.04504795     2.23448077     2.44001501     1.15181119     1.41304720     0.66344488
O       4.13776625     3.46959595     8.17436515    -1.15181119    -1.41304720    -0.66344488
O       0.46824553     0.61750440     2.43998107     0.55914830     2.04471297    -1.92260584
O       7.71456872     5.08657230     8.17439903    -0.55914830    -2.04471297     1.92260584
O       2.94940106     0.61755754     7.74720523    -1.15181119    -1.41304720     0.66344488
O       5.23341314     5.08651918     2.86717504     1.15181119     1.41304720    -0.66344488
