# total energy = -4977.85068023 eV

CRYSTAL
PRIMVEC
        2.85934270     0.00000000     0.00000000
        2.10831148     3.95308338     0.00000000
       -0.00001356    -0.00006108     4.63615431
PRIMCOORD
6 1
Ti      2.48382008     1.97651105     2.31807725     0.00000000     0.00000000     0.00000000
Ti      0.00000000     0.00000000     0.00000000     0.00000000     0.00000000     0.00000000
O       1.84054745     0.77038579     0.90351824    -9.83751691     4.03588193     5.82395577
O       3.12709274     3.18263642     3.73263631     9.83751691    -4.03588193    -5.82395577
O       0.64326689     1.20610072     3.22159640     9.83451232    -4.03502164     5.82164615
O       1.46503073     2.74692156     1.41455811    -9.83451232     4.03502164    -5.82164615
