# total energy = -19961.64536879 eV

CRYSTAL
PRIMVEC
        7.60600008     0.00000000     0.00000000
        0.00000000     7.60600008     0.00000000
       -1.89786986    -1.89786986     4.85670466
PRIMCOORD
24 1
Ti      3.80060297     6.73891501     1.14734301     1.12830924    -0.01284112    -0.39099526
Ti      3.78769602     2.87843901     1.21562402     0.81831045    -0.09188355    -0.41458360
Ti     -0.04250299     6.65385802     1.20103497    -0.74006995    -0.99902102     0.77560467
Ti     -0.02204002     2.77312501     1.26284298    -0.56436147     0.64905646    -0.04795803
Ti      5.63266425     2.81323120     3.69046579     0.54879960    -0.30601153     0.06047108
Ti      5.66198422    -0.95904576     3.66318982     0.55599407     0.13852698    -0.35550322
Ti      1.91818720     2.84900824     3.60575779    -0.09534348     0.10639743     0.65703666
Ti      1.92932125    -0.91605376     3.48794283    -0.34021287    -0.02847498     1.32398955
O       3.94642502     4.77686600     0.84542802    -0.51539685     0.46847445    -0.64989490
O       3.90246102     1.04803602     0.76866700    -0.59005580    -0.99129433    -0.63169277
O      -0.13866100     4.71399598     0.84632498     0.30473652    -0.21168440    -0.03942248
O      -0.08542498     0.84080000     0.87675299     0.32855882     1.82101920    -0.39228261
O       5.58073625     4.70686320     4.13058484     0.26949928     0.08576843    -0.66709687
O       5.80846524     0.89535224     4.14221282    -0.13604637    -0.14455904     0.16973941
O       2.13652722     4.82442622     3.99452882    -0.75322655    -0.55264752     0.34895411
O       1.91548120     1.01440321     4.03605383    -0.20043119    -0.75152293     0.06688342
O       3.85586924     2.59892420     3.26817181    -0.79208107     0.72382572    -0.47628315
O       3.83366925    -0.95904576     3.14726582    -1.04567576     0.36389376     0.41032791
O       0.04098425     2.82034922     3.21417584    -0.16169520     0.30074462     0.55120513
O      -0.00798677    -0.99242976     3.26927880     0.53245844    -0.33267953    -0.37035881
O       5.64583701     6.87333502     1.74709499     1.01283119    -0.74975453    -0.67609625
O       5.69252901     2.80645302     1.69169997     0.41651475     0.14503573     0.01233564
O       1.91017900     6.67038602     1.51999497    -0.16795943     0.09550752     0.50806251
O       1.91621099     2.81924498     1.62705198     0.18654312     0.27412418     0.22755737
