# total energy = -4987.29380040 eV

CRYSTAL
PRIMVEC
        3.66514807     0.00000000     0.00000000
        1.40966582     3.38321632     0.00000000
       -2.53744097    -1.69163084     4.77782470
PRIMCOORD
6 1
Ti      1.05715029     2.53754248     1.19445592     0.00107061    -0.00107061     0.00000000
Ti      1.48022274    -0.84595698     3.58336812    -0.00107061     0.00107061     0.00000000
O       0.35245456     0.84579965     0.77826848     0.00010901     0.00034864    -1.54330422
O       2.18491830     0.84578579     3.99955561    -0.00010901    -0.00034864     1.54330422
O      -0.35242290    -0.84577854     3.16718073     0.00034864     0.00010901    -1.54330422
O       2.88979570     2.53736394     1.61064341    -0.00034864    -0.00010901     1.54330422
