# total energy = -4978.21488776 eV

CRYSTAL
PRIMVEC
        4.96786235     0.00000000     0.00000000
       -0.00000752     2.98071741     0.00000000
       -2.48395916    -1.49041308     5.41021638
PRIMCOORD
6 1
Ti     -0.00021294     2.23564401     1.35255373    -0.00888522    -0.00959125    14.55416602
Ti      2.48410845    -0.74533979     4.05766198     0.00888522     0.00959125   -14.55416602
O       0.00005261     0.74516978     0.88127992     0.00573459     0.01005867    -7.94786003
O       2.48384279     0.74513438     4.52893584    -0.00573459    -0.01005867     7.94786003
O      -0.00002046    -0.74517970     3.58638811    -0.00224663    -0.00010567    -2.08437148
O       2.48391581     2.23548381     1.82382760     0.00224663     0.00010567     2.08437148
