# total energy = -4987.45211209 eV

CRYSTAL
PRIMVEC
        4.20247877     0.00000000     0.00000000
       -0.00000936     4.20247877     0.00000000
       -2.10127235    -2.10127702     5.36329756
PRIMCOORD
6 1
Ti     -0.00018507     3.15201825     1.34082424    -0.00164448     0.00164448     0.00000000
Ti      2.10138202    -1.05081662     4.02247297     0.00164448    -0.00164448     0.00000000
O       0.00004198     1.05061255     0.87363729    -0.00050419    -0.00188488    -1.04351603
O       2.10115486     1.05058896     4.48965998     0.00050419     0.00188488     1.04351603
O      -0.00002374    -1.05059431     3.55528601    -0.00188488    -0.00050419    -1.04351603
O       2.10122052     3.15179577     1.80801126     0.00188488     0.00050419     1.04351603
