# total energy = -4990.34531045 eV

CRYSTAL
PRIMVEC
        3.70922800     0.00000000     0.00000000
        0.18533763     3.70459476     0.00000000
       -1.94731574    -1.85232870     4.73528085
PRIMCOORD
6 1
Ti      0.13885338     2.77858674     1.18382008     0.00157917    -0.00157917     0.00000000
Ti      1.80839603    -0.92632114     3.55146051    -0.00157917     0.00157917     0.00000000
O       0.04637343     0.92614263     0.77133853    -0.00012290     0.00047411     0.41409432
O       1.90087582     0.92612287     3.96394211     0.00012290    -0.00047411    -0.41409432
O      -0.04635513    -0.92612523     3.13897896     0.00047411    -0.00012290     0.41409432
O       1.99360438     2.77839068     1.59630174    -0.00047411     0.00012290    -0.41409432
