# total energy = -19073.03685420 eV

CRYSTAL
PRIMVEC
        7.60600008     0.00000000     0.00000000
        0.00000000     7.60600008     0.00000000
       -1.89786986    -1.89786986     4.85670466
PRIMCOORD
22 1
Ti      3.87309502     6.72038798     1.58572302     0.18690950    -0.10143906    -1.51928008
Ti      3.62330198     2.79017802     0.97041000     0.50004453     0.35905855     0.19194192
Ti      0.20948497     6.68983498     1.07822500    -1.54979163    -0.81875268     3.48560548
Ti      0.06824201     2.90009199     0.89129102    -0.59480437     0.28844780     0.76596251
Ti      5.49901821     2.95907822     3.35620384     0.92351746    -1.32883197    -0.21838624
Ti     -1.42808678    -0.94260878     3.89787480     1.17576771     1.43834378    -1.73403360
Ti      1.88430822     2.99867322     3.88601679    -1.36573040    -1.38692529    -0.05256674
Ti      1.41539621    -1.15384575     4.02268782    -0.43947291     1.71480457    -0.69986637
O       3.50176600     4.71094702     0.92727301    -0.16907015     1.04418503    -0.44962492
O       3.80996100     0.87526700     1.04887302     0.57856039    -0.90088043     2.02930100
O       0.42069898     4.69494401     0.59186999    -0.35099222     0.92345395     0.12891002
O      -0.19438702     0.95229399     0.84510200    -0.18342385     0.02768256     0.53887565
O       5.65963620     4.86188224     4.19365583    -0.34788787    -1.16741085    -4.09286814
O       5.41825422     1.08777422     3.85000082    -0.30650209    -0.56456330    -0.61316539
O       2.31618623     4.80663222     4.47101779    -0.71646619    -0.46155613    -0.82584636
O       2.03684324     0.83598422     4.03287279     1.25104887     0.96233522    -0.56556294
O       3.60328320     2.97206523     3.14914683    -0.26629311     0.14617267    -0.27520507
O       0.13821422     2.83662724     2.87264881     1.38820853     1.02036992     0.65633860
O       5.97414402     6.62949899     1.94616798    -0.80130080    -0.69168640     0.63660538
O       5.50242500     3.09308601     1.37965902     1.49183920    -0.45880839     1.62467786
O       1.78934201     6.62332301     2.07987498     1.41597877    -0.25706773     0.74163627
O       1.92705701     1.99605198     0.06909197    -1.82013911     0.21306817     0.24655089
