# total energy = -19073.92494900 eV

CRYSTAL
PRIMVEC
        7.60600008     0.00000000     0.00000000
        0.00000000     7.60600008     0.00000000
       -1.89786986    -1.89786986     4.85670466
PRIMCOORD
22 1
Ti      3.83585697     6.56500498     1.18582102     0.92978992    -0.18913685     0.19824627
Ti      3.77401102     2.86125800     1.08616901    -0.32964409     0.03776952     0.20379445
Ti      0.24929800     6.76252002     1.02886700    -0.46830887    -1.82315656     0.93067156
Ti     -0.11935598     2.75239100     1.23528899     0.38331460     1.87106626     1.29625634
Ti      5.60787822     2.78277721     3.57444781    -0.18715144     0.64426187     1.54023895
Ti      6.07620924    -0.61671576     3.64478679     0.61763037    -3.85933449    -1.19678803
Ti      1.84290523     2.79256222     3.53272879    -0.23343594    -1.53902024     0.57750289
Ti      1.61838723    -1.20557278     3.82598782    -0.68176657     2.58603246     0.39776112
O       3.82225701     4.67484602     0.56031002    -0.12540252     0.25836100     3.15402150
O       4.10725098     1.00882600     0.77496998    -0.84657331    -1.29020267     0.17912934
O      -0.18219800     4.89436001     0.63381602     0.84298071     0.56878557     0.37493717
O      -0.22119397     0.98152500     1.05556902     0.55529138    -0.24663496    -0.21868757
O      -1.51692479     5.09379221     4.10395182    -0.18857223     0.06374204    -1.48737242
O       5.29058820     0.92294122     4.18595482     0.35043301     1.07069157    -1.14682582
O       2.11522323     4.61503222     4.19846383    -0.72902680     2.05993339    -1.76106902
O       1.58417920     0.90997521     3.96031280     0.69191189    -1.34330805     0.38940143
O       3.70327923     2.86875020     3.16651681     1.95011768    -0.09362316    -0.19382963
O      -0.10643077     2.70940525     3.39628981    -0.56643455     0.62689792    -1.37591145
O       5.57533001     6.57114000     1.78715799     0.82870645     0.61136048     1.49970600
O       5.69099202     3.00986198     1.60723799    -0.70290207     0.07059146     0.56842613
O       2.11369602     6.63742500     2.06501600    -0.31485304    -0.21491088    -1.63047776
O       1.91917798     2.87901799     1.68003098    -1.77610407     0.12983510    -2.29913144
