# total energy = -4976.94199620 eV

CRYSTAL
PRIMVEC
        2.78249942     0.00000000     0.00000000
        1.86735690     3.93960419     0.00000000
       -0.00001220    -0.00005858     4.48023587
PRIMCOORD
6 1
Ti      2.32492197     1.96977282     2.24011784     0.00000000     0.00000000     0.00000000
Ti      0.00000000     0.00000000     0.00000000     0.00000000     0.00000000     0.00000000
O       1.75516762     0.76775947     0.87313196   -10.72257528     4.39039785     6.20084801
O       2.89467626     3.17178619     3.60710372    10.72257528    -4.39039785    -6.20084801
O       0.56974924     1.20198972     3.11325072    10.72172913    -4.39015051     6.20003760
O       1.29759535     2.73755582     1.36698495   -10.72172913     4.39015051    -6.20003760
