# total energy = -19074.63593067 eV

CRYSTAL
PRIMVEC
        5.17600016     0.00000000     0.00000000
        0.00000000     5.50899976     0.00000000
        0.00000000     0.00000000     9.26300011
PRIMCOORD
22 1
Ti      1.85460698     3.35437399     3.26711399     0.14773719     1.69870946     0.76858787
Ti      3.47119702     2.24740202     5.99469298     1.44451803     0.54036767    -0.82257514
Ti      4.39863100     2.20610101     1.32325301     1.00500680     0.67636416    -2.64787806
Ti      0.74725098     3.25043300     8.12091500    -0.88614029     0.13725094     0.92855142
Ti      1.87482700     0.62086102     1.20331202     0.07830786    -1.23732971    -1.71874428
Ti      3.23596598     5.03043699     7.93429599     1.27217306     0.09065096     1.30250052
Ti      0.65719602     0.18776003     6.00202801    -0.42720797     1.02466187    -1.31313563
Ti      4.43795400     5.05447000     3.33244902    -0.44866667    -0.51353331     2.08862743
O       3.32823899     3.49389099     4.45416799     0.14013983    -1.26208071     1.42303722
O       0.89668302     2.00172598     0.23414199     0.10125419    -0.77639451    -0.01675434
O       4.18616200     3.56556303     8.98747201     1.44861457     0.24627295     0.46578431
O       3.51444101     0.77857298     0.20146302     0.56527395     0.53231574    -0.63349666
O       1.82862602     4.66818601     9.02788300    -2.69321922     0.72897924     1.56346116
O       4.46385400     0.88966899     4.77087799    -0.79621232    -0.06253645     0.38049127
O       0.95826099     4.74913102     4.36660900    -0.11898813    -0.74816584     1.71123511
O       0.10584402     3.59947800     2.42192299    -0.13875889    -1.78873667    -0.55984404
O       5.15079698     1.90079600     6.92169198    -0.38720699    -0.06639002    -0.56841995
O       2.66129298     2.15733198     2.01673599     0.11289898     0.13827732     1.54804739
O       2.50664998     3.41835301     7.21946399    -0.66370096    -1.12309942    -2.36890683
O       0.14991099     0.67826500     2.24642299     0.37372927     1.35832562    -0.88199361
O       2.39384802     0.78457200     6.53981498    -0.04691108    -0.80649854     0.37546708
O       2.71175400     4.77795801     2.46624603    -0.08264146     1.21258952    -1.02404197
