# total energy = -4985.41641258 eV

CRYSTAL
PRIMVEC
        3.11700754     0.00000000     0.00000000
        2.09184790     4.41321781     0.00000000
       -0.00001367    -0.00006563     5.01884346
PRIMCOORD
6 1
Ti      2.60442078     2.20657611     2.50942162     0.00000000     0.00000000     0.00000000
Ti      0.00000000     0.00000000     0.00000000     0.00000000     0.00000000     0.00000000
O       1.96617138     0.86005842     0.97809864    -2.19890466     1.31195987     1.20320859
O       3.24267013     3.55309382     4.04074460     2.19890466    -1.31195987    -1.20320859
O       0.63824369     1.34649121     3.48752130     2.19809244    -1.31206991     1.20323070
O       1.45359042     3.06666089     1.53132194    -2.19809244     1.31206991    -1.20323070
