# total energy = -19517.17384774 eV

CRYSTAL
PRIMVEC
        5.93400000     0.00000000     0.00000000
        0.00000000     9.29699974     0.00000000
        0.00000000     0.00000000     4.64899994
PRIMCOORD
23 1
Ti      4.42593798     7.08901402     2.12650502    -0.27901339     0.97485495     0.16628667
Ti      4.50939097     2.31529599     2.20107298     0.26153220    -0.07802941     1.52477144
Ti      1.28494100     7.00272701     2.31447101     0.27677859    -0.28569029    -0.50056158
Ti      1.57917498     2.32928702     2.51461902    -0.44929813    -1.14141082    -0.51805794
Ti      2.92277999     4.56997399     0.24184099     1.68689935    -0.78850595    -0.72209510
Ti      3.00758499     0.11895799     0.00241998     0.04240728    -0.40143600     1.19211016
Ti      5.92376900     4.55393801     0.14368401    -1.28590893    -0.59112460    -2.06722813
Ti      0.09924201     9.27437498     4.42693098    -1.20017572     0.58854347     1.23031111
O       4.54294700     5.54292902     0.94962302    -1.36734145     0.27081748    -0.21897862
O       4.40534801     0.93142901     0.94829801     0.63229312    -0.23826885    -0.56290057
O       1.47702901     5.49654298     0.85864401     0.03181150     1.56100987     0.63195554
O       1.60568502     0.92356898     0.93651498    -1.68578401    -0.06830909    -0.57139652
O       4.29249302     8.52850198     3.68345599     1.93399429    -1.85901395    -0.99514868
O       4.48460399     3.68182501     3.68669900     0.12765815     0.84471003     1.06614972
O       1.41264200     8.28203000     3.64557097     0.98787605     0.54024245     0.79006636
O       1.52408700     3.56932399     3.92648101    -0.00157532     0.93137115    -0.68564765
O       3.03224401     1.44953598     3.34827501    -0.24816323     0.75103905    -1.32869030
O       5.77027198     6.19564900     3.19271400     0.61745862    -0.81562365     0.31259767
O       0.02933102     1.21363601     3.04401402     0.10810901     0.96396684     0.65977488
O       2.89019098     7.84485699     1.32821701     0.24468504    -1.00091823     0.85979624
O       2.97685900     3.28546998     1.53010702    -0.26755989    -0.05073405    -0.11704386
O       0.01519898     7.90821702     1.34361099    -0.47978577     0.31289026    -0.72916178
O       0.04884502     3.26159001     1.44017203     0.31310289    -0.42038092     0.58309067
