# total energy = -4989.53332130 eV

CRYSTAL
PRIMVEC
        3.11612665     0.00000000     0.00000000
        0.24397295     4.87640394     0.00000000
       -0.00000135    -0.00006337     4.88403087
PRIMCOORD
6 1
Ti      1.68004901     2.43817012     2.44201532     0.00000000     0.00000000     0.00000000
Ti      0.00000000     0.00000000     0.00000000     0.00000000     0.00000000     0.00000000
O       1.60560971     0.95032683     0.95182561     0.03126900    -0.42551053    -0.43465672
O       1.75448826     3.92601341     3.93220498    -0.03126900     0.42551053     0.43465672
O       0.07443863     1.48781760     3.39384193    -0.03179864     0.42518632    -0.43437750
O       0.16953286     3.38852286     1.49018867     0.03179864    -0.42518632     0.43437750
