# total energy = -19958.67877205 eV

CRYSTAL
PRIMVEC
        7.60600008     0.00000000     0.00000000
        0.00000000     7.60600008     0.00000000
       -1.89786986    -1.89786986     4.85670466
PRIMCOORD
24 1
Ti      3.83144602     6.55531998     1.26849899     1.96384558    -0.49467118    -0.43568079
Ti      3.54397402     2.68859101     1.29078799    -0.47183052     2.01222656     1.53038750
Ti      0.26498403     6.58313602     1.11216701    -0.63494445     0.80599280    -0.30931385
Ti     -0.08786099     2.96983703     1.10623202     1.22885741    -0.99213740     0.19791100
Ti      5.75276023     2.98389721     3.44385083    -0.16613703     0.10100968    -0.16989445
Ti      5.82576722    -0.88716577     3.55060080    -2.05056172     0.39327120     0.36060584
Ti      1.77437921     2.76097521     3.84807081     0.40361167     0.46236577    -0.50276835
Ti      1.78406321    -1.00420676     3.65569382     2.47376160     0.07164330     0.87553397
O       3.31682998     4.54484098     0.97168400     1.70582345     2.46944112    -1.15616613
O       3.88874898     1.00124902     0.85346898    -0.17153892    -1.92963241    -0.93047461
O       0.42829098     4.78350902     0.82095601    -1.30657700     0.57426022    -0.54565051
O       0.13620202     1.04968203     0.73480002    -0.23785824     0.93068210     0.00439890
O       5.91919024     4.89342221     4.05631179    -1.06566172    -1.30426147     0.44280249
O       5.90766222     1.18720122     3.86516080    -0.54447886    -2.15809043     1.13065923
O       1.86994222     4.77758621     4.15848984     0.50333554    -0.53218898     0.61849246
O       1.58120724     0.93187124     3.99364879     0.22850174    -1.54227089     0.57535165
O       3.73417620     2.76875523     3.19636680     0.59551348     0.09294876     1.05123526
O       3.91390120    -1.03385677     3.28730681    -0.32191046     0.48995963     0.22896222
O      -0.02624677     3.13934822     3.35872679    -1.27312771    -0.36808904    -0.98821518
O       0.07910321     6.33766022     3.06907083    -0.10205304     1.08230242    -0.11626044
O       5.65485302     6.54669201     1.61691098     2.28889973     0.11323374    -0.42701951
O       5.63175999     3.04877403     1.48489301     1.17102274     0.00513398     0.60702740
O       2.12110699     6.74549099     1.65862698    -4.18117091     0.76116689     0.83877747
O       1.72596801     2.88353102     1.99377102    -0.03532209    -1.04429687    -2.88070130
