# total energy = -19934.61004743 eV

CRYSTAL
PRIMVEC
        5.17499830     0.00000000     0.00000000
        2.59191058     4.85977972     0.00000000
        0.00000000     0.00000000     9.58459235
PRIMCOORD
24 1
Ti      3.41165182     2.87990096     3.55581542     4.08489874    -4.82264159     1.13878418
Ti      4.35525720     1.97987888     6.02877704    -4.08489874     4.82264159    -1.13878418
Ti      5.51904961     1.97988061     1.23644252    -8.64357150     1.77214071     1.87110071
Ti      2.24785957     2.87989946     8.34814999     8.64357150    -1.77214071    -1.87110071
Ti      2.11569672     0.45001127     1.23648096     4.08464112    -4.82223998    -1.14037801
Ti      5.65121239     4.40976876     8.34811159    -4.08464112     4.82223998     1.14037801
Ti      0.95190423     0.45000940     6.02873859     8.64341209    -1.77259837     1.86539491
Ti      6.81500487     4.40977058     3.55585381    -8.64341209     1.77259837    -1.86539491
O       2.55057546     1.71121109     4.89094413    -0.24049825     0.98622720    -1.44206211
O       5.21633362     3.14856879     4.69364832     0.24049825    -0.98622720     1.44206211
O       1.86227605     1.71123065     0.09867875     2.03409071    -0.32566042    -1.13956631
O       5.90463310     3.14854926     9.48591339    -2.03409071     0.32566042     1.13956631
O       3.92037843     0.71867891     0.09864765     0.24035761    -0.98643160    -1.44190681
O       3.84653064     4.14110092     9.48594450    -0.24035761     0.98643160     1.44190681
O       4.60867790     0.71865938     4.89097519    -2.03403723     0.32664952    -1.13828847
O       3.15823112     4.14112051     4.69361722     2.03403723    -0.32664952     1.13828847
O       1.76456658     2.95599348     2.58903751     0.47228946    -1.71042058    -1.31412859
O       6.00234250     1.90378640     6.99555489    -0.47228946     1.71042058     1.31412859
O       3.79086869     1.90374101     2.20328916     2.23622038    -1.36687042    -2.61613855
O       3.97604039     2.95603887     7.38130309    -2.23622038     1.36687042     2.61613855
O       0.46861139     0.52610359     2.20325856     0.47208248    -1.71103405     1.31515781
O       7.29829768     4.33367623     7.38133368    -0.47208248     1.71103405    -1.31515781
O       2.68008520     0.52614898     6.99558543    -2.23625483     1.36643102    -2.61638049
O       5.08682387     4.33363085     2.58900692     2.23625483    -1.36643102     2.61638049
