# total energy = -4986.73935365 eV

CRYSTAL
PRIMVEC
        2.89500349     0.00000000     0.00000000
        1.33086609     4.33640665     0.00000000
       -0.00000886    -0.00005945     4.58910605
PRIMCOORD
6 1
Ti      2.11293042     2.16817364     2.29455303     0.00000000     0.00000000     0.00000000
Ti      0.00000000     0.00000000     0.00000000     0.00000000     0.00000000     0.00000000
O       1.70686623     0.84509029     0.89434916    -3.51085013     1.63831191     1.82190366
O       2.51899466     3.49125699     3.69475684     3.51085013    -1.63831191    -1.82190366
O       0.40606055     1.32305929     3.18890321     3.51050071    -1.63882408     1.82213352
O       0.92479686     3.01328778     1.40020285    -3.51050071     1.63882408    -1.82213352
