# total energy = -19927.68432385 eV

CRYSTAL
PRIMVEC
        6.10092521     0.00000000     0.00000000
        2.78118451     5.86745580     0.00000000
        0.00000000     0.00000000    11.22104327
PRIMCOORD
24 1
Ti      3.85941925     3.47704884     4.16292699     0.49541654    -2.79932200     0.67136388
Ti      5.02269026     2.39040688     7.05811634    -0.49541654     2.79932200    -0.67136388
Ti      6.39471186     2.39040886     1.44754985    -1.52251710    -1.09583620     0.58709131
Ti      2.48739777     3.47704708     9.77349366     1.52251710     1.09583620    -0.58709131
Ti      2.46882715     0.54332103     1.44759482     0.49541654    -2.79932200    -0.67136388
Ti      6.41328241     5.32413486     9.77344869    -0.49541654     2.79932200     0.67136388
Ti      1.09680550     0.54331887     7.05807137     1.52251710     1.09583620     0.58709131
Ti      7.78530411     5.32413701     4.16297203    -1.52251710    -1.09583620    -0.58709131
O       2.91028363     2.06603090     5.72601250     1.74255604     2.11238366    -0.99464191
O       5.97182588     3.80142481     5.49503090    -1.74255604    -2.11238366     0.99464191
O       2.09883047     2.06605461     0.11552695     0.24660437    -1.08739449     1.59853462
O       6.78327913     3.80140122    11.10551614    -0.24660437     1.08739449    -1.59853462
O       4.58123375     0.86769689     0.11549050    -1.74255604    -2.11238366    -0.99464191
O       4.30087578     4.99975889    11.10555253     1.74255604     2.11238366     0.99464191
O       5.39268699     0.86767323     5.72604889    -0.24660437     1.08739449     1.59853462
O       3.48942248     4.99978256     5.49499444     0.24660437    -1.08739449    -1.59853462
O       1.91333475     3.56891926     3.03108374     0.66011607     2.72767304     2.55655449
O       6.96877470     2.29853647     8.18995966    -0.66011607    -2.72767304    -2.55655449
O       4.36161985     2.29848187     2.57947362     0.91626797     1.85767363     1.34366184
O       4.52048967     3.56897385     8.64156953    -0.91626797    -1.85767363    -1.34366184
O       0.52274260     0.63519128     2.57943778     0.66011607     2.72767304    -2.55655449
O       8.35936685     5.23226445     8.64160537    -0.66011607    -2.72767304     2.55655449
O       3.12989752     0.63524587     8.18999538    -0.91626797    -1.85767363     1.34366184
O       5.75221199     5.23220985     3.03104789     0.91626797     1.85767363    -1.34366184
