# total energy = -4988.20486407 eV

CRYSTAL
PRIMVEC
        3.54830771     0.00000000     0.00000000
        0.00000000     4.10931882     0.00000000
        0.00000000    -0.00006483     4.94577233
PRIMCOORD
6 1
Ti      1.77415391     2.05462683     2.47288616     0.00000000     0.00000000     0.00000000
Ti      0.00000000     0.00000000     0.00000000     0.00000000     0.00000000     0.00000000
O       1.77415391     0.80083301     0.96385816     0.00000000     0.19636345     0.27000424
O       1.77415391     3.30842059     3.98191411     0.00000000    -0.19636345    -0.27000424
O       0.00000000     1.25376761     3.43674542     0.00000000    -0.19645189     0.27005232
O       0.00000000     2.85548604     1.50902690     0.00000000     0.19645189    -0.27005232
