# total energy = -19515.00050088 eV

CRYSTAL
PRIMVEC
        5.93400000     0.00000000     0.00000000
        0.00000000     9.29699974     0.00000000
        0.00000000     0.00000000     4.64899994
PRIMCOORD
23 1
Ti      4.39414501     7.06857301     2.26157598     3.67460940    -1.10083854     0.89865694
Ti      4.34869900     2.25332098     2.38882200     1.34535208     0.91892547     0.40146145
Ti      1.34899198     7.24166800     2.04041498    -2.45855866    -1.16328012     1.05863206
Ti      1.44889599     2.15494100     2.37670802    -0.51705727     1.68649903    -0.41488956
Ti      3.04706399     4.59973502     0.12844000     2.40058001    -2.70171672     0.52792172
Ti      2.91675700     9.17919298     0.08530300     0.21274652     1.31970532    -2.15957962
Ti      0.18384300     4.68941300     4.60844798    -1.68919124    -0.59025326    -0.55904648
Ti      5.86933200     0.14101499     4.58519498    -0.28309090    -1.15315511     0.57316930
O       4.71011801     5.52039501     0.99076502    -2.51198672     0.95146845    -0.02868658
O       4.42727399     0.85649402     0.84293798    -0.49214121     0.73253507     0.37568716
O       1.73267300     5.51866100     0.93687303    -0.66147258     1.64809959     0.22350480
O       1.42866602     0.90361302     0.91651399     0.71228377    -1.03651928    -0.60111129
O       4.43993201     8.22180598     3.77404701    -0.95286995     0.28527480     0.50909610
O       4.53533098     3.84547101     3.72036399    -0.54274002    -0.11051454    -0.51261568
O       1.42973803     8.08835002     3.61514402     1.75891315     2.71809542     2.49719181
O       1.38416798     3.49485198     3.93050202     1.62851781     1.23461746    -1.28617092
O       2.93826901     1.54731899     3.58556799     0.47222852    -0.83675684    -2.31330722
O       0.14561598     6.20335001     3.14516297    -0.47853724    -1.22963054    -0.32666341
O       0.00916498     1.12006800     3.06240299    -0.38042905     1.29541636    -0.31335768
O       3.03973102     8.05655900     1.55935698    -0.74568987    -0.47388483    -0.39532474
O       3.05928899     3.13015900     1.48190601    -0.99946633     0.73670155    -0.71409511
O       5.76171301     8.21761500     1.44790802     0.55558577    -2.52568068     0.40534485
O       0.04978600     3.16812599     1.28867101    -0.04758625    -0.60510781     2.15418133
