# total energy = -19074.53971077 eV

CRYSTAL
PRIMVEC
        7.60600008     0.00000000     0.00000000
        0.00000000     7.60600008     0.00000000
       -1.89786986    -1.89786986     4.85670466
PRIMCOORD
22 1
Ti      3.78783901     6.59124402     1.18674200    -0.25781104     0.05141051     1.23241016
Ti      3.82834001     2.73633000     1.22819500     0.58170279     0.98152774     0.86277152
Ti      0.17384002     6.81604598     1.02787098     0.08749159    -1.53254080     1.66583738
Ti      0.10395698     2.86966600     0.92894701    -0.56543516     0.96681279     1.62438501
Ti      5.78656222     2.87859422     3.53008783    -1.16603583     0.16503120     0.21354511
Ti      6.05078222    -0.91088476     3.60558782    -1.49864517    -0.10141566     0.22778491
Ti      1.83491322     2.80504022     3.78327983     1.76720625    -1.09018800    -0.98603000
Ti      1.07689422    -0.97956080     4.05371782     3.13086665     0.45826434    -3.11624838
O       3.86901702     4.72698300     0.83166402    -0.24972209    -0.09798889     0.32196908
O       3.91689200     0.87508602     0.75815399     0.25614111     0.04897465     2.83817241
O       0.25365101     4.81335298     0.65617402    -0.11065338    -0.57152945    -0.10306657
O      -0.16960798     1.02291899     0.73979699     0.54170515     0.28690822     0.32710641
O       5.54125423     4.86971623     4.09857782     0.49950408    -0.38185164    -2.52869812
O       5.46727324     0.94697322     3.86188879     1.31188068     0.07077607     0.38814699
O       1.76523323     4.77989723     4.23243579    -0.71365931    -0.27631245    -1.51499045
O       2.09634023     0.86930820     4.15365681    -1.65039559     0.19361571    -0.46870302
O       3.80771824     2.84737425     3.27746983    -0.55912593     0.51843846    -0.65885931
O       0.14668725     2.84135221     3.07543683    -1.01415273     0.07873081     0.58023726
O       5.90481302     6.64161402     1.78708899    -0.81299083    -0.24203217    -0.71471578
O       5.74287801     2.90259701     1.62424501     0.42497960     0.16179110    -0.16325534
O       1.95083500     6.62267599     1.96740598    -0.35356230     0.31944709     0.29872399
O       1.93246001     2.68121100     1.42247798     0.35071120    -0.00786938    -0.32652379
