# total energy = -19073.54092831 eV

CRYSTAL
PRIMVEC
        5.93400000     0.00000000     0.00000000
        0.00000000     9.29699974     0.00000000
        0.00000000     0.00000000     4.64899994
PRIMCOORD
22 1
Ti      4.49625500     7.00376801     2.36920100    -0.76031585    -0.28910292    -0.24867513
Ti      4.35812201     2.15185801     2.31296401     1.04468203     0.60776453     0.42984901
Ti      1.51830499     7.10568998     2.36069300     0.43193624     0.74114236     0.69928324
Ti      1.59318400     2.40207201     2.11929202    -2.35278369     0.60104829     0.42481196
Ti      2.96902701     4.77204699     0.04909400     0.69918065     0.12391462    -0.93387052
Ti      3.07089602     0.08253398     0.00393602    -0.86844158    -1.41991025    -0.51386601
Ti      5.81015797     4.51669097     4.49130798     0.07685544    -0.64472955    -0.00266135
Ti      0.07656300     9.18840501     0.06463001     0.37447437    -0.18036887    -0.53789246
O       4.51410700     5.44282101     1.03224399    -1.14543717     0.91682410    -0.13664261
O       4.46687201     0.99133801     0.80203099     0.98421840    -0.00210753     0.29150561
O       1.52589398     0.81740099     1.00567099    -0.78210827     0.92657322    -1.25099925
O       4.45204001     8.19306297     3.88371301     0.32495491     1.75749570     0.29184963
O       4.21512101     3.86678601     3.65790700     0.46363255    -1.11981303    -0.13721751
O       1.47406302     8.17858701     3.90521200    -0.47751754     1.51523367     0.20821444
O       1.39991698     3.80710201     3.67779501     0.83396359    -0.05537721     0.50377237
O       2.89210999     6.27122699     3.32382200     0.31625326    -2.24034905     0.36015409
O       2.75394499     1.21766299     3.15181600     0.86074421     0.55982964     0.91389150
O       5.88688899     6.10359099     3.25503901     0.57152842    -0.49384225    -0.21842404
O       2.97714698     8.12988302     1.64347901    -0.23865503    -1.29036079    -0.89774240
O       3.10456598     3.01501897     1.37495903    -0.55033327     2.65283592    -1.58600948
O       5.90086599     8.09906501     1.45674199    -0.10649385    -1.89931266     1.89390126
O       5.87845999     3.16682400     1.38619600     0.29966270    -0.76738767     0.44676791
