# total energy = -39032.02257162 eV

CRYSTAL
PRIMVEC
        5.93200024     0.00000000     0.00000000
        0.00000000     9.29399984     0.00000000
        0.00000000     0.00000000     9.29399984
PRIMCOORD
46 1
Ti      4.36542597     7.28373998     6.94688902     1.83804505    -1.54582030    -1.03674323
Ti      4.42832202     6.66678201     2.43990999    -0.01779281     1.73403258    -0.34956552
Ti      4.43079699     2.11658300     7.13527602    -0.74410376     0.75351323    -0.84578398
Ti      4.15661702     2.77681698     2.08108600     0.85506053    -1.83591155     0.62713677
Ti      1.54149201     6.83321000     7.04965900    -2.30310919     0.07025696     0.24820951
Ti      1.45639898     7.09280801     2.22175899     0.57639578    -0.53107750    -1.80750548
Ti      1.42821902     2.51557598     6.78295700     0.48061572    -0.27292296     0.54663576
Ti      1.23443098     1.89552900     2.88220400     1.05035568     0.87798398    -1.19126298
Ti      3.03397802     4.61252598     4.75425499    -0.06015998     1.38724231     0.34546563
Ti      3.03314298     4.75404697     8.98117300    -0.88195222    -0.32273296    -0.15829800
Ti      3.04619302     9.13651500     4.55971203     2.46598349     0.65422078     0.45099429
Ti      2.97434498     0.05709002     0.04371502    -1.17752892    -0.38217431     0.77439265
Ti      0.03496200     4.62600598     4.56106201     0.12235705     0.81528657     1.59838575
Ti      0.01756498     4.76056501     0.10030502     1.36526734     1.38533609    -2.19073600
Ti      0.13778701     9.06303302     4.77931201    -2.96129745    -0.02826698     0.39311796
Ti      5.91597998     0.13672400     9.28571901     0.93092969    -0.33896640     1.12650304
O       4.57276498     5.66486199     5.59750100    -0.90059812    -1.01669221    -1.55707299
O       4.31742701     5.66659197     0.73201100     1.74959907    -1.59315433     1.16621889
O       4.40421498     0.75773298     5.50493901     0.08958241     0.60521245     0.68490743
O       4.57764399     1.24070702     0.70496702    -1.51609576    -1.13255028     0.23921810
O       1.32112101     5.73035402     5.47996301     1.42150844    -1.28931358     0.15564822
O       1.66338100     5.80477698     0.54789102    -1.34685104    -0.66380946     1.92125806
O       1.36875998     0.89350399     5.46400398     1.60106201     1.38526539    -0.45378831
O       1.46185300     0.78775500     1.06875601     0.37389999    -0.08709024     0.72980456
O       4.52315599     8.43793398     8.37478302    -0.62359096     0.67652460     0.48668301
O       4.53244903     8.10041700     3.94467900    -0.94704717     0.42904323    -0.73040003
O       4.46514800     3.76669901     8.23253700     0.81069561    -0.74403254     0.97676425
O       4.39487300     3.90349699     3.67939000    -0.25374586    -0.28347451    -1.21884450
O       1.60739399     8.35605602     8.48668703    -0.08332794     0.19443563    -0.08715863
O       1.48812898     8.34267498     3.71527198     0.20183887     0.42080104    -0.85583700
O       1.51750901     3.89749702     8.27274701    -0.82759625    -1.16805106    -0.18861594
O       1.54908300     3.59163098     3.83328999    -0.10266162    -0.03565941     0.13458496
O       3.14816902     6.05781102     7.61880400    -0.69601434    -0.68536045     0.89865462
O       2.82561199     6.03509498     3.13729802     0.10250246    -0.58370183     0.62131939
O       2.72317301     1.54456901     7.97812298     1.77513013    -0.43668866    -0.85095139
O       3.16943999     1.60213699     3.12201999    -0.74891378    -1.12488273     0.05666431
O       0.05346701     6.03012198     7.89918301    -0.73744511     0.19420321     0.40106705
O       0.18530200     5.84188702     3.12426000    -0.53516272     0.84556827    -1.50194595
O       0.10793602     1.46720801     7.94500198    -0.00043375     0.51029192    -1.52715588
O       2.83961598     7.90459898     6.09930402     0.21384233     1.19398501    -0.93781665
O       3.26242199     7.86803501     1.44640901    -2.12563770     0.82774717     0.32954793
O       3.16499098     3.17878399     5.93151102    -1.39388553    -0.34179667     1.13589811
O       0.03089998     7.95909800     6.19915400     1.04688418    -0.47756536     0.52472121
O       5.74193300     7.79116301     1.53239302     1.82187641     0.45284420    -0.25040574
O       5.84246297     3.12643402     5.86935201     0.35232842    -0.46895808     1.27093687
O       0.07669498     2.79889701     1.77623398    -0.26080920     1.97686025    -0.10485040
