# total energy = -19518.77060294 eV

CRYSTAL
PRIMVEC
        7.60600008     0.00000000     0.00000000
        0.00000000     7.60600008     0.00000000
       -1.89786986    -1.89786986     4.85670466
PRIMCOORD
23 1
Ti      3.77173001     6.62664698     1.27162902     0.97503287    -0.46828522     0.19590785
Ti      3.70055101     2.74179201     1.12756702     0.53465416     0.97480636     1.94421571
Ti      0.05568098     6.71562401     1.18327499    -1.15421235    -0.05288813     0.85521608
Ti     -0.03490802     2.91798401     1.06210600    -0.40824145     0.12219558    -0.63761042
Ti      5.64582224     3.02764721     3.59408383    -1.13554073    -2.92051845    -0.56893623
Ti      5.74421323    -0.96064975     3.55839183    -0.08204316     1.63145221     1.07740704
Ti      1.99347722     2.78121222     3.75636979     0.75461803     0.15667203    -0.25955322
Ti      1.92035021    -1.04595080     3.63412979     0.01242640    -0.03006418     0.35207594
O       3.74934401     4.65520100     0.90873598    -0.39060085     0.48651486    -0.53697355
O       3.86814801     0.94492102     0.95464502    -0.27866423    -1.12101116    -0.84882817
O      -0.07611998     4.78596599     0.75899200     0.71209480     1.36349302     0.34760248
O      -0.12488800     1.10492300     0.68972100     0.29692087    -2.38310781     0.24617525
O       5.82166525     4.74641523     4.14099582     0.52503900     1.75198274    -0.92079903
O       5.77193021     1.07388125     3.91351083     0.51961423    -0.54480025     0.25265752
O       1.90604020     4.66428825     4.22840579    -0.48650663     0.73601275    -1.31436719
O       1.93416021     0.85530924     4.04491781    -0.58928909     0.04889417     0.32864264
O       3.79508122     2.79367524     3.41980882    -0.27604814     0.41554493    -1.34203407
O       3.79700822    -1.12136575     3.22147880    -0.31475071     0.02077298     0.59022806
O      -0.00977978    -0.97874677     3.21535479     1.32452331    -0.18538149     0.30557058
O       5.73310500     6.67599202     1.70720698    -0.16501783    -0.04321049    -1.54125762
O       5.72170801     2.93965699     1.57452600    -0.14039360     0.11622985     0.96702825
O       1.92005102     6.73812600     1.66441300    -0.75420434    -0.14268805     0.04164777
O       1.75731298     2.81230498     1.72745600     0.52058970     0.06738401     0.46598434
