# total energy = -4986.25207823 eV

CRYSTAL
PRIMVEC
        3.87614081     0.00000000     0.00000000
        0.00000000     3.27025545     0.00000000
        0.00000000    -0.00007387     5.13383871
PRIMCOORD
6 1
Ti      1.93807030     1.63509074     2.56691951     0.00000000     0.00000000     0.00000000
Ti      0.00000000     0.00000000     0.00000000     0.00000000     0.00000000     0.00000000
O       1.93807030     0.63731022     1.00050960     0.00000000    -0.71094294     0.48050439
O       1.93807030     2.63287131     4.13332937     0.00000000     0.71094294    -0.48050439
O       0.00000000     0.99775109     3.56743009     0.00000000     0.71010502     0.48228540
O       0.00000000     2.27243039     1.56640893     0.00000000    -0.71010502    -0.48228540
