# total energy = -19907.09580060 eV

CRYSTAL
PRIMVEC
        6.62436387     0.00000000     0.00000000
        1.73549892     6.83338457     0.00000000
        0.00000000     0.00000000    11.95133206
PRIMCOORD
24 1
Ti      3.42946841     4.04945757     4.43385918    -0.28116823    -1.77826534     0.63834859
Ti      4.93039456     2.78392745     7.51747355     0.28116823     1.77826534    -0.63834859
Ti      6.42013055     2.78392981     1.54175947     0.21546084    -0.39310588    -0.26763728
Ti      1.93973246     4.04945547    10.40957339    -0.21546084     0.39310588     0.26763728
Ti      2.56171910     0.63276533     1.54180739    -0.28116823    -1.77826534    -0.63834859
Ti      5.79814391     6.20061995    10.40952547     0.28116823     1.77826534     0.63834859
Ti      1.07198301     0.63276271     7.51742563    -0.21546084     0.39310588    -0.26763728
Ti      7.28787999     6.20062251     4.43390709     0.21546084    -0.39310588     0.26763728
O       2.70775167     2.40615102     6.09867355     1.77294624     1.94929673    -0.57266073
O       5.65211124     4.42723401     5.85265918    -1.77294624    -1.94929673     0.57266073
O       1.82667340     2.40617860     0.12304570    -0.78566900     0.15954035     0.91753167
O       6.53318966     4.42720655    11.82828670     0.78566900    -0.15954035    -0.91753167
O       4.78436190     1.01054157     0.12300692    -1.77294624    -1.94929673    -0.57266073
O       3.57550108     5.82284345    11.82832547     1.77294624     1.94929673     0.57266073
O       5.66544031     1.01051404     6.09871233     0.78566900    -0.15954035     0.91753167
O       2.69442260     5.82287105     5.85262040    -0.78566900     0.15954035    -0.91753167
O       1.29630728     4.15645202     3.22835314     0.52534419     1.59437714     1.71954929
O       7.06355563     2.67693301     8.72297959    -0.52534419    -1.59437714    -1.71954929
O       4.23272756     2.67686929     2.74735127     0.57779934     1.65838915     0.89770177
O       4.12713542     4.15651580     9.20398126    -0.57779934    -1.65838915    -0.89770177
O       0.42855794     0.73975958     2.74731309     0.52534419     1.59437714    -1.71954929
O       7.93130505     6.09362551     9.20401943    -0.52534419    -1.59437714     1.71954929
O       3.25938607     0.73982330     8.72301770    -0.57779934    -1.65838915     0.89770177
O       5.10047690     6.09356173     3.22831496     0.57779934     1.65838915    -0.89770177
