# total energy = -19904.53659410 eV

CRYSTAL
PRIMVEC
        7.76751041     0.00000000     0.00000000
        0.00002446     3.13575110     0.00000000
        0.00000000     0.00000000    12.02216947
PRIMCOORD
24 1
Ti      2.81536353     1.85824316     4.46013914    -0.35213791     0.26397732     1.43334966
Ti      4.95217156     1.27750783     7.56203043     0.35213791    -0.26397732    -1.43334966
Ti      6.69898616     1.27750890     1.55089761    -0.34997226    -0.26496873    -1.43198158
Ti      1.06854892     1.85824225    10.47127208     0.34997226     0.26496873     1.43198158
Ti      2.81535141     0.29036766     1.55094581    -0.35286887     0.26415087    -1.43359083
Ti      4.95218367     2.84538344    10.47122388     0.35286887    -0.26415087     1.43359083
Ti      1.06853680     0.29036654     7.56198224     0.35236853     0.26421386    -1.43144242
Ti      6.69899828     2.84538456     4.46018734    -0.35236853    -0.26421386     1.43144242
O       2.45847480     1.10415125     6.13482104     4.49881591    -0.13891933     0.15299406
O       5.30906033     2.03159974     5.88734854    -4.49881591     0.13891933    -0.15299406
O       1.42534321     1.10416388     0.12377498    -4.49542899    -0.14043653     0.15387878
O       6.34219198     2.03158711    11.89839427     4.49542899     0.14043653    -0.15387878
O       5.30904822     0.46372419     0.12373598    -4.49490731     0.13935539     0.15310385
O       2.45848687     2.67202680    11.89843327     4.49490731    -0.13935539    -0.15310385
O       6.34217986     0.46371156     6.13486009     4.49536111     0.14062140     0.15564796
O       1.42535517     2.67203948     5.88730948    -4.49536111    -0.14062140    -0.15564796
O       0.28222651     1.90734157     3.24748789    -0.19972774    -0.00516638     1.18698184
O       7.48530857     1.22840943     8.77468169     0.19972774     0.00516638    -1.18698184
O       4.16599195     1.22838028     2.76363508    -0.20284983     0.00492212    -1.18841137
O       3.60154319     1.90737077     9.25853428     0.20284983    -0.00492212     1.18841137
O       0.28221440     0.33946602     2.76359668    -0.20015840    -0.00556747    -1.19046543
O       7.48532069     2.79628498     9.25857267     0.20015840     0.00556747     1.19046543
O       3.60153107     0.33949516     8.77471998     0.20235901    -0.00576184    -1.19018286
O       4.16600407     2.79625583     3.24744955    -0.20235901     0.00576184     1.19018286
