# total energy = -19960.41378250 eV

CRYSTAL
PRIMVEC
        5.93400000     0.00000000     0.00000000
        0.00000000     9.29699974     0.00000000
        0.00000000     0.00000000     4.64899994
PRIMCOORD
24 1
Ti      4.48331301     6.91837298     2.17422602    -1.10014614     0.56330551     0.95141162
Ti      4.42664300     2.23379000     2.28364500     0.27779494     1.24431823     0.22464945
Ti      1.48075198     6.97808201     2.41018001     1.16743476    -0.46471961     0.04754666
Ti      1.45131200     2.28485301     2.31211400    -0.11333273     1.11325414     0.79073459
Ti      2.99601098     4.70985099     4.63499802    -1.41004595    -1.62954445    -0.24757444
Ti      2.97924400     0.04844501     0.02307800    -0.38032569    -0.50154579    -0.84822782
Ti      5.91398001     4.64127703     4.59944001     1.13893305    -1.44592879    -0.28870054
Ti      5.92855900     9.24569299     0.10298699     0.02814819     0.85043382    -1.54111929
O       4.51341801     5.52089598     0.94280902     0.11113932     0.36148053    -0.31012015
O       4.38588598     0.87738699     0.84814302     0.70494147     0.66582623     1.74255090
O       1.49228900     5.59766098     0.90280697    -0.44030132    -0.59163882    -0.25575364
O       1.45626600     1.00616302     1.01078602     0.14164650    -1.75979890    -1.18574205
O       4.42531598     8.45394598     3.80513099     0.04012594    -0.62959783    -0.41046494
O       4.42089402     3.77593501     3.69970200     0.91222645     0.73516737     0.74116576
O       1.46653701     8.55221901     3.74690101    -0.09787576    -1.01837937    -0.24666993
O       1.60235501     3.75455498     3.64855199    -0.97442686     1.30506057     1.38662833
O       3.03585501     6.06454898     3.20053698    -0.09742711     0.49108114     0.23571111
O       3.01779800     1.52479800     3.21362999    -0.72283635    -1.59906529     1.32092762
O       5.84922898     6.13433201     3.21937400     0.34374196    -0.66366985     0.75618332
O       5.89177499     1.45427201     3.40319398     0.31960470     0.13187990    -1.00884598
O       2.82851400     7.79921201     1.39022701     1.32725562     0.92904507    -0.16017002
O       3.01736799     3.20407702     1.37466300    -0.14614696     0.38944565    -0.16170779
O       0.11009601     7.85554102     1.46039501    -1.30000141     0.67270394    -0.53141405
O       5.90979401     3.18444698     1.46424398     0.26987337     0.85088685    -1.00099871
