# total energy = -19517.23361213 eV

CRYSTAL
PRIMVEC
        5.17600016     0.00000000     0.00000000
        0.00000000     5.50899976     0.00000000
        0.00000000     0.00000000     9.26300011
PRIMCOORD
23 1
Ti      1.88727298     3.21131701     3.45259601    -0.06906654    -0.81404216     2.07962805
Ti      3.40714598     2.22695303     5.89477903    -1.00950444     1.02821307    -3.17784201
Ti      4.34105699     2.17024602     1.42801301     0.27845855    -0.67560774    -0.48308064
Ti      0.81273699     3.27613598     7.81456598    -1.24336975     1.23421379     0.91166904
Ti      2.10882701     0.24738698     1.26989401    -1.00140726     0.63960251    -0.16409866
Ti      3.10012899     5.20315299     7.82850398     2.72785122    -1.11154359     2.86949566
Ti      0.85026502     0.49357600     5.96767298    -1.37846996    -0.51721539    -2.77814716
Ti      4.54478499     4.90411799     3.41385500     0.27505518     0.51194205     2.06570141
O       1.61968398     1.93793599     4.89645101     0.55465375    -0.19128578    -0.73265489
O       3.57560602     3.48384901     4.44940201     0.23515987     0.29329613     0.19195375
O       4.70821297     3.11222799     9.17849198     0.37520457    -0.51358730     0.57171920
O       3.41582100     0.91370501     0.06361298     0.07107277    -0.09439063     1.11820352
O       1.73345301     4.64926702     9.10818703     0.02725088    -0.98995787    -0.74411096
O       4.32693801     0.67735900     4.82784699    -0.57204187     0.08176831    -0.18653437
O       1.03928898     4.64220002     4.50360400    -0.20201885     0.48141405     0.12556193
O       0.17474798     3.37178001     2.54648300     0.64459380    -0.42847347    -0.64032679
O       4.99556501     2.02875302     6.71677402     1.33333988    -0.13124561     1.71207200
O       2.70031298     1.74738498     2.36238499     0.54637814     1.31241932    -0.31268688
O       2.47878202     3.76201902     6.91575800    -0.06750691    -1.95446130    -1.02488941
O       0.29084502     0.72407302     1.87752998    -0.26176308    -0.37214315     0.17053799
O       5.00063802     4.70587697     7.29525900    -0.34594540     1.54046238    -1.14563463
O       2.37048399     1.08781798     7.06119501    -1.53522735     1.22873014    -0.44696717
O       2.88111998     4.55732999     2.35160200     0.61730281    -0.55810777     0.02043102
