# total energy = -19946.24478760 eV

CRYSTAL
PRIMVEC
        5.79684281     0.00000000     0.00000000
        0.00003177     6.16959374     0.00000000
        0.00000000     0.00000000    10.37507397
PRIMCOORD
24 1
Ti      2.10109553     3.65609554     3.84907852     0.03173925    -0.69731815     0.55681168
Ti      3.69577904     2.51349825     6.52599575    -0.03173925     0.69731815    -0.55681168
Ti      4.99941545     2.51350037     1.33841716     0.03306440     0.69762976    -0.55649672
Ti      0.79745912     3.65609366     9.03665723    -0.03306440    -0.69762976     0.55649672
Ti      2.10107977     0.57129879     1.33845876     0.03173925    -0.69731815    -0.55681168
Ti      3.69579481     5.59829518     9.03661562    -0.03173925     0.69731815     0.55681168
Ti      0.79744336     0.57129649     6.52595414    -0.03306440    -0.69762976    -0.55649672
Ti      4.99943122     5.59829748     3.84912013     0.03306440     0.69762976     0.55649672
O       1.83474853     2.17241889     5.29432094     1.17033420     1.06557430     0.04538667
O       3.96212604     3.99717496     5.08075333    -1.17033420    -1.06557430    -0.04538667
O       1.06372914     2.17244374     0.10681721    -1.17011128     1.06571083     0.04489276
O       4.73314550     3.99715011    10.26825677     1.17011128    -1.06571083    -0.04489276
O       3.96211028     0.91237803     0.10678354    -1.17033420    -1.06557430     0.04538667
O       1.83476430     5.25721576    10.26829043     1.17033420     1.06557430    -0.04538667
O       4.73312973     0.91235319     5.29435461     1.17011128    -1.06571083     0.04489276
O       1.06374478     5.25724067     5.08071966    -1.17011128     1.06571083    -0.04489276
O       0.21063201     3.75269666     2.80256638     0.41037059    -0.24086258     0.28008940
O       5.58624257     2.41689714     7.57250789    -0.41037059     0.24086258    -0.28008940
O       3.10905806     2.41683964     2.38500374     0.41021015     0.24098933    -0.28027760
O       2.68781652     3.75275416     7.99007035    -0.41021015    -0.24098933     0.28027760
O       0.21061624     0.66789973     2.38497061     0.41037059    -0.24086258    -0.28008940
O       5.58625833     5.50169406     7.99010348    -0.41037059     0.24086258     0.28008940
O       2.68780075     0.66795723     7.57254096    -0.41021015    -0.24098933    -0.28027760
O       3.10907383     5.50163656     2.80253325     0.41021015     0.24098933     0.28027760
