# total energy = -19927.42550021 eV

CRYSTAL
PRIMVEC
        7.43496836     0.00000000     0.00000000
        0.00002616     4.26087567     0.00000000
        0.00000000     0.00000000    11.24848570
PRIMCOORD
24 1
Ti      2.69483403     2.52499111     4.17310812     0.29596365     0.11126504     1.83060402
Ti      4.74016067     1.73588491     7.07537805    -0.29596365    -0.11126504    -1.83060402
Ti      6.41219079     1.73588642     1.45109006     0.29572531    -0.11129204    -1.83138692
Ti      1.02280391     2.52498972     9.79739622    -0.29572531     0.11129204     1.83138692
Ti      2.69482106     0.39455333     1.45113514     0.29596365     0.11126504    -1.83060402
Ti      4.74017363     3.86632281     9.79735114    -0.29596365    -0.11126504     1.83060402
Ti      1.02279094     0.39455165     7.07533296    -0.29572531     0.11129204    -1.83138692
Ti      6.41220375     3.86632443     4.17315320     0.29572531    -0.11129204     1.83138692
O       2.35322371     1.50032683     5.74001633     1.53106448     0.74492368    -1.07554993
O       5.08177098     2.76054914     5.50846983    -1.53106448    -0.74492368     1.07554993
O       1.36432248     1.50034400     0.11580945    -1.52972210     0.74460769    -1.07547537
O       6.07067227     2.76053203    11.13267636     1.52972210    -0.74460769     1.07547537
O       5.08175802     0.63011130     0.11577296    -1.53106448    -0.74492368    -1.07554993
O       2.35323668     3.63076472    11.13271285     1.53106448     0.74492368     1.07554993
O       6.07065931     0.63009413     5.74005282     1.52972210    -0.74460769    -1.07547537
O       1.36433527     3.63078189     5.50843328    -1.52972210     0.74460769     1.07547537
O       0.27014550     2.59170615     3.03849671    -1.70729566     0.61638827     0.64583899
O       7.16484920     1.66916987     8.20998945     1.70729566    -0.61638827    -0.64583899
O       3.98763885     1.66913003     2.58578209    -1.70905507    -0.61628132    -0.64647739
O       3.44735584     2.59174599     8.66270383     1.70905507     0.61628132     0.64647739
O       0.27013253     0.46126826     2.58574619    -1.70729566     0.61638827    -0.64583899
O       7.16486216     3.79960777     8.66273974     1.70729566    -0.61638827     0.64583899
O       3.44734288     0.46130810     8.21002529     1.70905507     0.61628132    -0.64647739
O       3.98765182     3.79956793     3.03846081    -1.70905507    -0.61628132     0.64647739
