# total energy = -19957.77244344 eV

CRYSTAL
PRIMVEC
        5.33160901     0.00000000     0.00000000
        1.12368013     5.56207338     0.00000000
        0.00000000     0.00000000     9.59095481
PRIMCOORD
24 1
Ti      2.59834355     3.29607954     3.55817595     0.73409445    -1.53965299     0.82819686
Ti      3.85694533     2.26599398     6.03277924    -0.73409445     1.53965299    -0.82819686
Ti      5.05595689     2.26599597     1.23726332    -1.31442916    -0.45197773     0.52131116
Ti      1.39933202     3.29607776     8.35369197     1.31442916     0.45197773    -0.52131116
Ti      2.03650361     0.51504305     1.23730178     0.73419164    -1.53990959    -0.83614234
Ti      4.41878528     5.04703063     8.35365352    -0.73419164     1.53990959     0.83614234
Ti      0.83749199     0.51504090     6.03274078     1.31424352     0.45152393     0.52099363
Ti      5.61779691     5.04703278     3.55821441    -1.31424352    -0.45152393    -0.52099363
O       2.08315469     1.95850062     4.89419097     0.70499983     1.05616406    -0.58223038
O       4.37213419     3.60357290     4.69676422    -0.70499983    -1.05616406     0.58223038
O       1.37401913     1.95852302     0.09874427    -0.03134742    -0.27227915     0.53048280
O       5.08126981     3.60355055     9.49221065     0.03134742     0.27227915    -0.53048280
O       3.81029424     0.82253625     0.09871313    -0.70558373    -1.05699221    -0.58217073
O       2.64499465     4.73953726     9.49224178     0.70558373     1.05699221     0.58217073
O       4.51942986     0.82251390     4.89422211     0.03164695     0.27219894     0.53109215
O       1.93585897     4.73955967     4.69673308    -0.03164695    -0.27219894    -0.53109215
O       0.87719558     3.38316826     2.59075626    -0.00118811     0.38929987     0.28770141
O       5.57809330     2.17890525     7.00019893     0.00118811    -0.38929987    -0.28770141
O       3.29970834     2.17885330     2.20475184     0.82555094     0.26185487    -0.28594612
O       3.15558054     3.38322021     7.38620318    -0.82555094    -0.26185487     0.28594612
O       0.31535563     0.60213162     2.20472120    -0.00119736     0.38887487    -0.28777623
O       6.13993326     4.95994195     7.38623383     0.00119736    -0.38887487     0.28777623
O       2.59374058     0.60218351     7.00022952    -0.82579262    -0.26190449    -0.28595331
O       3.86154830     4.95989000     2.59072562     0.82579262     0.26190449     0.28595331
