# total energy = -4989.08571574 eV

CRYSTAL
PRIMVEC
        3.92260835     0.00000000     0.00000000
        1.15087932     3.74997774     0.00000000
       -2.53677924    -1.87501504     5.06469213
PRIMCOORD
6 1
Ti      0.86303945     2.81262707     1.26617274     0.00010387    -0.00010387     0.00000000
Ti      1.67366874    -0.93766455     3.79851864    -0.00010387     0.00010387     0.00000000
O       0.28776086     0.93748924     0.82499682    -0.00043117    -0.00058595    -1.11506934
O       2.24894716     0.93747320     4.23969455     0.00043117     0.00058595     1.11506934
O      -0.28773065    -0.93746691     3.35734272    -0.00058595    -0.00043117    -1.11506934
O       2.82443865     2.81242924     1.70734870     0.00058595     0.00043117     1.11506934
