# total energy = -4968.51476112 eV

CRYSTAL
PRIMVEC
        5.09241524     0.00000000     0.00000000
       -0.00000721     2.74207008     0.00000000
       -2.54623589    -1.37109674     5.49370637
PRIMCOORD
6 1
Ti     -0.00021796     2.05664704     1.37342638    -0.01300387    -0.01619127    23.39871429
Ti      2.54638971    -0.68567354     4.12027956     0.01300387     0.01619127   -23.39871429
O       0.00005406     0.68550678     0.89487981     0.01089043     0.01371273   -15.98705982
O       2.54611759     0.68546661     4.59882623    -0.01089043    -0.01371273    15.98705982
O      -0.00002080    -0.68552537     3.64173300    -0.00196638    -0.00002108    -1.87031652
O       2.54619233     2.05649876     1.85197305     0.00196638     0.00002108     1.87031652
