# total energy = -19517.50590378 eV

CRYSTAL
PRIMVEC
        5.17600016     0.00000000     0.00000000
        0.00000000     5.50899976     0.00000000
        0.00000000     0.00000000     9.26300011
PRIMCOORD
23 1
Ti      1.85995500     3.26919101     3.32859401    -0.47358169    -0.20167741     2.52268045
Ti      3.38625899     2.19832898     5.83490601    -0.47483305     0.23066223    -2.16783363
Ti      4.41083499     2.08562598     1.44920699     0.73532883    -1.79060612    -0.95814612
Ti      0.88636501     3.32496301     7.83241799     0.59248086     0.87715171     2.49393860
Ti      1.84411101     0.49994402     1.32368498    -0.14209001    -0.06673558    -2.32573259
Ti      3.29472201     5.12304899     7.85722402    -0.44472645     1.58486997     2.08578636
Ti      0.71644398     0.60961097     5.82606700    -0.27767873    -0.66081927    -2.91247681
Ti      4.39036599     4.87434299     3.40704697     0.63676967     0.01022014     2.54312227
O       1.79723797     1.92721602     4.76415802    -1.40295870    -0.21773369     0.25074333
O       3.39438397     3.61135501     4.53577199     0.74825583     0.16309876     0.23264636
O       0.63758000     2.33761298     0.21151601     0.03729541    -0.10392429    -0.49028153
O       3.48736698     0.94559302     0.14755600    -0.38347118    -0.34681855    -0.33504135
O       1.66290702     4.77389303     9.07994600     0.50099789     0.39149405     0.31401872
O       4.27531201     0.74323299     4.78929298    -0.85515668     1.23634344     0.41493995
O       0.85914398     4.73117202     4.42275900     0.78681237    -0.66783272     0.68376663
O       0.06269300     3.25820598     2.65590701     0.01712201     0.64811955    -0.29656863
O       5.15842798     2.10404902     6.83855501    -1.42404458    -0.39469482    -0.61859762
O       2.72684598     1.82786400     2.39563801    -0.01468383     1.11866657    -0.69195534
O       2.60338300     3.54522002     7.14948400     0.52227069    -1.87730915    -0.39148325
O       0.13100201     0.61091402     2.30753302     0.27298929     0.63027789    -1.79537938
O       5.07077998     4.82345899     7.14431500    -0.60880480    -0.29189436     0.54848053
O       2.39698302     0.63328499     6.66838298     1.06859021     0.33485777     1.23745801
O       2.65881098     4.77404702     2.41125001     0.58311613    -0.60571562    -0.34408521
