# total energy = -4988.07086481 eV

CRYSTAL
PRIMVEC
        4.47630556     0.00000000     0.00000000
       -0.00000834     3.66243161     0.00000000
       -2.23818265    -1.83125766     5.24587791
PRIMCOORD
6 1
Ti     -0.00019428     2.74696021     1.31146962    -0.00267575    -0.00113309     3.24507972
Ti      2.23830886    -0.91578648     3.93440846     0.00267575     0.00113309    -3.24507972
O       0.00004618     0.91560019     0.85451071     0.00016815     0.00056616    -0.70226341
O       2.23806828     0.91557342     4.39136743    -0.00016815    -0.00056616     0.70226341
O      -0.00002165    -0.91559186     3.47744955    -0.00224663    -0.00035918    -1.59568841
O       2.23813600     2.74676548     1.76842853     0.00224663     0.00035918     1.59568841
