# total energy = -4987.70380199 eV

CRYSTAL
PRIMVEC
        3.59948522     0.00000000     0.00000000
        0.00000000     4.16858784     0.00000000
        0.00000000    -0.00006577     5.01710558
PRIMCOORD
6 1
Ti      1.79974267     2.08426087     2.50855279     0.00000000     0.00000000     0.00000000
Ti      0.00000000     0.00000000     0.00000000     0.00000000     0.00000000     0.00000000
O       1.79974267     0.81238349     0.97775996     0.00000000     0.27675108     0.37213441
O       1.79974267     3.35613819     4.03934556     0.00000000    -0.27675108    -0.37213441
O       0.00000000     1.27185080     3.48631387     0.00000000    -0.27665929     0.37216989
O       0.00000000     2.89667094     1.53079171     0.00000000     0.27665929    -0.37216989
