# total energy = -19057.02880989 eV

CRYSTAL
PRIMVEC
        7.60600008     0.00000000     0.00000000
        0.00000000     7.60600008     0.00000000
       -1.89786986    -1.89786986     4.85670466
PRIMCOORD
22 1
Ti      4.12058699     6.76938900     1.49712901    -0.33640995    -2.75849287    -1.29128922
Ti      4.25350499     2.66572701     2.11099801    -5.78717998     1.60330762    -0.38719825
Ti      0.18754798     6.25228398     0.95076202    -2.57092671     1.75306697     0.08025984
Ti      0.30240702     2.44889298     0.21380100    -4.82269378    -2.66136812     2.21237416
Ti     -1.24313478     2.53277022     3.80924582    -5.35041521    10.79660611     1.86907596
Ti     -0.69210680     1.24953624     2.72394280     2.10503287    -7.49538093    -8.65386208
Ti      1.10758021     2.72450924     4.38677981     5.61426423    -4.34539633    -2.30826426
Ti      0.82565124    -0.51282880     4.22999179     3.93641259    -4.35366705     0.15233175
O       3.90775401     4.57367802     1.79422600    -0.51885961     0.50150800    -0.41731437
O       3.31878402     1.07697201     1.30010002     0.40073280    -3.06447174    -1.47216588
O       0.26394398     4.19097402     0.81431198     1.10328700     2.41083177    -1.86126803
O      -0.18167100     0.53787200     0.70776298     1.33363762     0.41499060     2.67553054
O       5.78819225     4.32561825     3.97007680     1.01107307    -0.75843946     1.58687286
O       4.69624325     1.20850722     3.49405684     3.30216389     0.36624401     0.16487025
O       1.40172423     4.30623925     4.66708579     0.31816154     7.36816039     2.77060971
O       1.66029225     0.92359121     4.65499081    -0.28940065     0.43549413     0.27915969
O       2.67569724     2.43480623     3.20917183    -0.53431889     1.66983956     0.75575291
O       0.37508422     3.20288420     2.62162781    -1.72090889    -3.93686999     2.55870085
O       5.69111902     6.33717099     0.86673100     0.24324599     0.88833601     1.58731766
O       5.83373398     2.47878499     1.35309702     3.01510757    -0.83167093     0.59611640
O       1.52521324     6.56174821     2.56526080    -0.74420994     0.22455792    -0.64388417
O      -0.90963775    -0.57630879     3.59471180     0.29220495     1.77281408    -0.25372658
