# total energy = -19961.07570502 eV

CRYSTAL
PRIMVEC
        5.93400000     0.00000000     0.00000000
        0.00000000     9.29699974     0.00000000
        0.00000000     0.00000000     4.64899994
PRIMCOORD
24 1
Ti      4.43065099     7.01578203     2.40076500    -0.34325243    -0.33986911    -0.58871676
Ti      4.47348101     2.31994698     2.32792602     0.17717324    -0.34408032     0.66954868
Ti      1.47335599     6.99391102     2.33106801     0.23756256     0.34212808    -0.12951474
Ti      1.48446501     2.38280202     2.26221200    -0.08937518    -0.76622117     0.54622541
Ti      2.94440302     4.62606498     0.02543199     1.16643486     0.05032114    -0.07640190
Ti      2.96171098     9.24973300     4.62315900    -0.55097758     0.54039852    -0.15944779
Ti      0.04003099     4.72013698     4.64594500    -1.11167857    -0.23089415     0.09046096
Ti      5.92160302     9.27255498     0.02824002     0.48157603     0.26909304     0.04989665
O       4.38790198     5.51805298     0.89344302     0.24023934     0.36858423     0.40111950
O       4.46976999     0.85670601     0.85221398    -0.03960117     0.50471571    -0.18059975
O       1.48192400     5.49561798     0.97156901     0.04811024     0.12912059    -0.20283080
O       1.47442302     0.86537298     0.83099598     0.15458969     0.06666307    -0.33863678
O       4.46714199     8.34503400     3.74413701    -0.02120518     0.19110297    -0.03685112
O       4.44912499     3.73167901     3.79115298    -0.18876995    -0.42548379    -0.71060870
O       1.52784500     8.27338499     3.70702099    -0.23369357     1.20408997     0.89359778
O       1.41408502     3.73863198     3.75476400     0.51655796     0.02508163    -0.22622939
O       2.90349402     6.13066698     3.21438899     0.85254213    -1.10798569     0.52460834
O       2.88593402     1.32185101     3.14361899     1.00984511     0.28768470     0.30847362
O       0.04809200     6.17048302     3.33541500    -0.54928194    -0.67031333    -0.47510713
O       0.05951101     1.39718997     3.04794698    -0.79347024    -0.75276555     1.41795184
O       3.03145702     7.95186398     1.48193401    -0.29502468    -0.33491279    -0.52294432
O       3.00024302     3.22471599     1.49195398     0.06046183     0.62693803    -1.14150852
O       5.91521601     7.89032199     1.38828900     0.00090143    -0.31496283     0.05403792
O       0.02759300     3.17952801     1.37086399    -0.72966418     0.68156602    -0.16652219
