# total energy = -19954.22876618 eV

CRYSTAL
PRIMVEC
        5.95211533     0.00000000     0.00000000
        0.00002515     4.68228096     0.00000000
        0.00000000     0.00000000     9.47668453
PRIMCOORD
24 1
Ti      2.15737045     2.77471540     3.51578237    -0.01094828     0.87218999    -1.52443565
Ti      3.79477008     1.90756572     5.96090221     0.01094828    -0.87218999     1.52443565
Ti      5.13332531     1.90756735     1.22252206    -0.00920712    -0.87189817     1.52458272
Ti      0.81881522     2.77471398     8.25416263     0.00920712     0.87189817    -1.52458272
Ti      2.15735798     0.43357502     1.22256005    -0.01112722     0.87176088     1.52319690
Ti      3.79478255     4.24870625     8.25412463     0.01112722    -0.87176088    -1.52319690
Ti      0.81880275     0.43357324     5.96086421     0.00911662     0.87225967     1.52562145
Ti      5.13333778     4.24870804     3.51582036    -0.00911662    -0.87225967    -1.52562145
O       1.88389097     1.64871075     4.83587958     0.90722360    -0.59272537     0.95327053
O       4.06824961     3.03357037     4.64080500    -0.90722360     0.59272537    -0.95327053
O       1.09221926     1.64872964     0.09756780    -0.90671606    -0.59313058     0.95313246
O       4.85992137     3.03355153     9.37911652     0.90671606     0.59313058    -0.95313246
O       4.06823714     0.69242983     0.09753705    -0.90709787     0.59309561     0.95346362
O       1.88390344     3.98985129     9.37914726     0.90709787    -0.59309561    -0.95346362
O       4.85990891     0.69241100     4.83591032     0.90688601     0.59295600     0.95311575
O       1.09223162     3.98987017     4.64077425    -0.90688601    -0.59295600    -0.95311575
O       0.21626942     2.84802870     2.55988891     0.24651541    -0.23270858     0.59038027
O       5.73587116     1.83425242     6.91679566    -0.24651541     0.23270858    -0.59038027
O       3.19233350     1.83420875     2.17848351     0.24748317     0.23279034    -0.59047926
O       2.75980708     2.84807242     7.29820091    -0.24748317    -0.23279034     0.59047926
O       0.21625696     0.50688822     2.17845324     0.24664396    -0.23262939    -0.59028154
O       5.73588362     4.17539295     7.29823118    -0.24664396     0.23262939     0.59028154
O       2.75979461     0.50693189     6.91682588    -0.24744357    -0.23297597    -0.59063121
O       3.19234597     4.17534923     2.55985865     0.24744357     0.23297597     0.59063121
