# total energy = -19951.70894600 eV

CRYSTAL
PRIMVEC
        5.63146569     0.00000000     0.00000000
        0.89403901     5.92652716     0.00000000
        0.00000000     0.00000000    10.10770884
PRIMCOORD
24 1
Ti      2.57094212     3.51205445     3.74988792     0.22031405    -1.42309224     0.79241300
Ti      3.95456250     2.41447255     6.35782115    -0.22031405     1.42309224    -0.79241300
Ti      5.22100799     2.41447455     1.30392619    -0.38787420    -0.18858046    -0.04635906
Ti      1.30449665     3.51205268     8.80378299     0.38787420     0.18858046     0.04635906
Ti      2.12392274     0.54879097     1.30396673     0.22031405    -1.42309224    -0.79241300
Ti      4.40158190     5.37773619     8.80374245    -0.22031405     1.42309224     0.79241300
Ti      0.85747724     0.54878880     6.35778061     0.38787420     0.18858046    -0.04635906
Ti      5.66802740     5.37773837     3.74992846    -0.38787420    -0.18858046     0.04635906
O       2.09720076     2.08683089     5.15788650     1.26146595     1.42881038    -0.41845928
O       4.42830387     3.83969610     4.94982251    -1.26146595    -1.42881038     0.41845928
O       1.34818125     2.08685485     0.10406452    -0.63511105     0.27633250     0.54490618
O       5.17732343     3.83967220    10.00364426     0.63511105    -0.27633250    -0.54490618
O       3.98128448     0.87643246     0.10403174    -1.26146595    -1.42881038    -0.41845928
O       2.54422015     5.05009454    10.00367704     1.26146595     1.42881038     0.41845928
O       4.73030404     0.87640855     5.15791934     0.63511105    -0.27633250     0.54490618
O       1.79520053     5.05011850     4.94978973    -0.63511105     0.27633250    -0.54490618
O       0.74840937     3.60484977     2.73034437     0.23151918     0.58518021     0.72910522
O       5.77709526     2.32167717     7.37736470    -0.23151918    -0.58518021    -0.72910522
O       3.37057361     2.32162205     2.32354232     0.65441799     0.77995292     0.09602380
O       3.15493102     3.60490489     7.78416658    -0.65441799    -0.77995292    -0.09602380
O       0.30138997     0.64158612     2.32350999     0.23151918     0.58518021    -0.72910522
O       6.22411465     5.28494082     7.78419885    -0.23151918    -0.58518021     0.72910522
O       2.70791162     0.64164124     7.37739691    -0.65441799    -0.77995292     0.09602380
O       3.81759300     5.28488570     2.73031210     0.65441799     0.77995292    -0.09602380
