# total energy = -39033.95508034 eV

CRYSTAL
PRIMVEC
        5.93200024     0.00000000     0.00000000
        0.00000000     9.29399984     0.00000000
        0.00000000     0.00000000     9.29399984
PRIMCOORD
46 1
Ti      4.47748899     6.91938398     6.91347100    -0.49767603     1.21601038     0.08078358
Ti      4.36990303     6.85695101     2.46812799     1.14389579    -0.12555344     0.48102941
Ti      4.46669399     2.23788699     6.99200900     0.28541467     0.44865613    -0.13177526
Ti      4.23881899     2.63295501     2.07201898     1.46010149    -0.58606056     0.79131771
Ti      1.52336001     6.99746598     7.05189499     1.07897078    -0.95932111    -0.38314156
Ti      1.37858199     7.17626402     2.15538598    -0.74625988    -1.42562632     0.77297751
Ti      1.57289899     2.36639800     6.98923701    -0.62701028     0.06394285     0.20756266
Ti      1.33614102     2.05996802     2.42304198     0.29697718     2.00016216     0.02981170
Ti      2.87577201     4.60474501     4.60198202    -0.92140504     0.16892643    -0.69388315
Ti      3.05421698     4.90940098     9.22087998    -1.63073178    -1.05643994    -0.27901596
Ti      3.04740399     9.26959101     4.67928000     0.44078598     0.49851600     0.32355751
Ti      2.95831599     0.00309002     9.25975302     1.67010799    -1.12987685     0.04523781
Ti      5.87436501     4.63909099     4.83188900     1.04335251     0.23400210    -1.32263458
Ti      0.01845998     4.71381400     9.20846400     1.15053464    -1.41902759     0.29374659
Ti      0.12942802     9.04387299     4.87254500    -0.45253592     1.34792190    -0.92416538
Ti      0.00244797     0.05426898     9.22139201    -1.60191485    -1.03517820    -0.43806446
O       4.39940101     5.38117001     5.68588398    -0.13475414     1.15548119    -0.46577248
O       4.50399601     5.53838000     0.81935101    -0.66161348     0.44029438     1.72255877
O       4.51695202     0.84001200     5.72002702     0.24449118    -0.58493364    -2.18536342
O       4.50553200     0.90333800     0.72071899    -0.86831302     1.87579657     1.81824935
O       1.43263702     5.58164098     5.55805798     0.84848030    -0.44475165    -0.03666497
O       1.47406699     5.78513398     0.79549300     0.36734444    -0.84592128    -0.59346971
O       1.54884699     0.87258302     5.62521402    -0.26129077     0.09467474    -0.90585577
O       1.44196001     0.89345800     0.89183099     0.12140754    -0.26751721     0.43112300
O       4.42251801     8.32624699     8.41750499     0.12024643    -0.34561501    -0.47060770
O       4.61493300     8.16935398     3.83611802    -0.56509089     1.94235989     1.17783642
O       4.41622302     3.76591001     8.36467902     0.08842696    -0.35660443     0.61665670
O       4.47738702     3.77057598     3.81192298    -1.02461944    -0.69189980    -1.96991544
O       1.53124301     8.44716802     8.18403299    -0.31769154     0.14498893     2.14053031
O       1.65149298     8.33314799     3.89423999    -1.47481643     0.75169263    -1.21721442
O       1.48533799     3.85565201     8.34137601     0.43992877    -0.82726278     0.20104877
O       1.45849601     3.60064398     3.77304999     0.52718664     0.22366035     0.09109885
O       3.11504998     6.00540501     7.77250502    -1.32998202     0.42565426     0.34322260
O       2.78697602     6.18556600     3.18737200     0.90035824    -2.19121268     1.13565232
O       3.02760498     1.26507802     7.84186603    -0.57526860     1.46397151    -0.01288097
O       2.99198600     1.47907899     3.19526198     0.55463755     0.03133327    -0.76205495
O       5.89397198     6.08059898     7.81674498     0.38185807    -0.30582461     0.54366871
O       0.17761602     6.10797200     3.23960201    -1.45119261    -0.54224097    -0.08501587
O       5.86402398     1.28674899     7.76422302     1.26756821     0.48505653     1.13542092
O       2.92274099     7.94759299     6.11279899     0.93390112    -0.76849968    -0.26331680
O       3.03450402     7.85076499     1.45768901    -0.74290562     1.33650337    -0.86400617
O       2.96700302     3.23061002     6.18194299    -0.03644463     0.09706072    -1.01170273
O       0.10302298     7.84487699     6.14284700    -0.69382710    -0.35342963    -0.05448478
O       5.63727899     7.83130100     1.46269100     2.50487762     1.37061472    -1.07533936
O       0.10469301     3.18913602     6.04292902    -0.51579537    -0.31594576     0.60224489
O       0.09633502     3.30788403     1.35347200    -0.73971514    -1.23853736     1.16100880
