# total energy = -39035.87853175 eV

CRYSTAL
PRIMVEC
        7.60600008     0.00000000     0.00000000
        0.00000000     7.60600008     0.00000000
       -3.79573973    -3.79573973     9.71340985
PRIMCOORD
46 1
Ti      1.84061447     4.74729647     6.14353763     0.99674842    -0.08125435     1.12306496
Ti      3.72730801     6.91390800     1.23583499     0.19098213    -1.85933816     0.99426833
Ti      2.10230945     0.89408846     6.01043765     1.03989566    -0.38053009     2.04176957
Ti      3.75592099     2.79372800     1.24709800     0.66637671     0.93913280     1.18268912
Ti     -1.88312053     4.67832144     5.95053965    -1.00489805    -0.34324009     2.25198921
Ti      0.06721202     6.73221202     1.16066298    -2.03640830    -0.62627211     0.18546428
Ti     -1.78551156     0.88419147     6.00347960    -1.11886224     0.02170680     0.34614106
Ti     -0.10882800     2.88130202     1.11027102    -0.21065570     0.52220333    -0.36766429
Ti      3.83332947     1.17022045     8.51555365     0.92731704    -2.16622232    -2.13575705
Ti      5.70441899     2.72546900     3.71153699     0.15833271    -0.38668120    -0.59709342
Ti      3.92774845    -2.82837154     8.44519064     0.37466952     1.70013025    -0.61034438
Ti      5.55455298    -1.10744998     3.59913202    -1.19316817     0.56472425    -0.33745819
Ti      0.10943946     1.08503847     8.27671362    -0.48079518    -0.07147438     1.99592344
Ti      1.89838602     2.78581701     3.48213299    -1.42974575     0.78408880     1.51992002
Ti      0.07588746    -2.70999856     8.54789362    -0.62979170    -0.95185900    -0.25567059
Ti      1.66676101    -1.03134900     3.81232600     1.39370889     0.24532550     0.37499476
O       2.06818345    -0.99339656     5.85496764    -0.74024299    -0.03706247    -1.15499422
O       3.82240000     1.05900100     0.82951698     0.43312511    -0.65189162     0.51078557
O      -1.76909553     2.79937342     5.71843161     0.27837267    -1.28834762    -1.15824024
O      -0.07734799     4.82279900     0.57463098    -0.01607377     0.21832891     2.42522789
O      -2.00945853    -1.01504356     5.54256960     0.59910737    -0.07998319     1.21057660
O      -0.07270202     1.00940201     0.74588798    -0.43704296    -0.26429768     1.05042253
O       3.98558546     2.96174247     8.90532365    -0.52184620    -0.82354316     0.32185390
O       5.34458000     4.56970300     4.21029401     0.22358501     1.11779831    -2.26110892
O       3.87414046    -0.86455254     8.84174565     0.18292737    -1.25856652     0.24566026
O       5.74958999     0.77062300     3.93452800     0.11354767     1.67434028     0.47054059
O       0.14604043     2.84412547     8.99561462    -0.01515486    -0.74602206     0.30556055
O       1.83572900     4.74726398     4.22884300     0.09666143    -1.88114987    -1.28092124
O      -0.02661957    -0.82776853     9.11442063     0.62098489     1.40731261    -1.71950044
O       1.74224201     1.00413701     4.24754502    -0.66868376     0.25575313    -2.47603960
O       2.03823847     0.73568148     7.95109361    -0.57857582     1.28570092     0.87897874
O       3.69260499     2.61845301     3.29464301     0.86143018     0.36981862    -0.40728449
O       1.98012047    -3.01107454     8.18810760    -0.72773019     0.68712140    -0.78187893
O       3.63134002    -0.80033699     3.32360101    -0.25927065    -0.52194571    -0.93443745
O      -1.74505755     1.03209747     8.11602863    -1.23918965    -0.34083199    -0.42676600
O      -0.14286002     2.92218499     3.17114298     1.42783079    -0.32869149     0.38047250
O      -1.76152253    -3.02840853     8.40368965    -0.53318040     1.18304728    -0.82724606
O      -0.12977199    -1.14582401     3.22695002     0.11831835     0.22236940    -0.28659223
O       3.88413646     4.40482947     6.52057462    -0.46373025     0.90894444     0.32569641
O       5.45190101     6.33987202     1.57457998     0.37150115     0.48481253     0.49476554
O       3.94880446     1.10362847     6.39466864    -0.69500081     0.10496224    -0.17359529
O       5.67982299     3.22676100     1.72128199    -1.76416926    -0.80440515    -0.81666520
O      -0.06084956     4.65632746     6.58743262     1.41648939     0.53591117    -0.46309056
O       1.73441601     6.50789299     1.60848003     2.43720590     0.30663862     0.48074016
O       0.03179445     1.08772146     6.49514861     1.58029366    -0.30875052    -1.92414156
O       1.83915098     2.86389003     1.53482702     0.25480439     0.66219018     0.27898357
