# total energy = -19961.23513563 eV

CRYSTAL
PRIMVEC
        7.60600008     0.00000000     0.00000000
        0.00000000     7.60600008     0.00000000
       -1.89786986    -1.89786986     4.85670466
PRIMCOORD
24 1
Ti      3.75970800     6.62763300     1.20295599    -0.52921627     0.36040555    -0.29149276
Ti      3.73917301     2.87325699     1.15360402    -0.59821160    -0.49195866     0.72881443
Ti     -0.00167098     6.72563599     1.19736301     0.47637751    -0.92829226     0.88300380
Ti     -0.06417602     2.88044698     1.19188598     0.77611863     0.71548480     0.62593144
Ti      5.67870923     2.94991525     3.64651783     1.08848156    -0.95329881     0.26834588
Ti      5.68966421    -0.92031978     3.60932784     1.57942232     0.22150422     0.13308189
Ti      1.91736523     2.79932125     3.69867582    -0.81183307     0.61442806    -2.07151030
Ti      1.94466321    -1.04630079     3.68587084    -1.05379762    -0.52296720    -0.52259054
O       3.73627698     4.78531600     0.70101301     0.26535440    -1.07012516     1.37233325
O       3.69646502     0.88813802     0.75966299     0.37231336     0.29411760     1.06027603
O       0.04794600     4.80691099     0.84119497    -0.53210517     0.11742850    -0.54703197
O       0.09229402     1.00220202     0.76086603    -0.61981915    -0.85225185    -0.52672873
O       5.96691525     4.74610323     4.03875581    -0.48693755     1.03497945     0.16970418
O       5.96734224     1.02445821     4.12490682    -1.27470637    -1.05300675    -1.04795581
O       1.64076725     4.70499521     4.05012682     0.82393602     0.24859723     0.26498442
O       1.87659921     0.89510623     4.12542779     0.50480595     0.17421364    -0.54419861
O       3.84176021     2.92893723     3.36498881    -0.62629962    -0.22818318    -0.55118122
O       3.83854821     6.32649320     3.16825082     0.39561322     0.77966573     1.05337339
O       0.05630425     2.73473024     3.11022981    -0.50148306     0.19845838     0.52622557
O       0.06118824    -0.99392177     3.14463179    -1.63304706     0.55424186     0.27707041
O       5.67456599     6.69249701     1.57456098     0.39347843     0.31045517     0.26471419
O       5.65469702     2.89220598     1.60768700    -0.14675888    -0.07288617     0.02044953
O       1.90040002     6.57086699     1.78022498     0.73650537     0.58523086    -1.56628732
O       1.90864503     2.88505198     1.63767002     1.40180813    -0.03624126     0.02066859
