# total energy = -19517.31280858 eV

CRYSTAL
PRIMVEC
        5.93400000     0.00000000     0.00000000
        0.00000000     9.29699974     0.00000000
        0.00000000     0.00000000     4.64899994
PRIMCOORD
23 1
Ti      4.52675698     7.05128601     2.25992998     1.20426712     0.34132821    -0.48028302
Ti      4.40844401     2.27016400     2.43836902     1.50182948     0.22002403    -0.82791224
Ti      1.46200598     7.02540300     2.13734998    -0.54590402     0.93400499     0.97085097
Ti      1.45521902     2.27571401     2.26910898    -1.03568213     0.43882654     0.46707346
Ti      2.94686698     4.39034498     0.19783800     0.42085349     0.88067232    -1.12523729
Ti      2.94016399     9.28371999     4.58483498    -0.16733131    -0.79177254    -0.20380782
Ti      0.01915600     4.66709199     4.64486098    -0.10368723    -0.39594875    -0.06532996
Ti      5.85617602     0.17533198     4.60709202     0.54780176    -1.20177597     0.97904225
O       4.38086398     5.58583402     1.00583800    -0.07758667    -0.18178272    -0.87378253
O       4.42074299     0.94764803     0.97367900     0.30766192    -0.42099619    -0.91058378
O       1.54049202     5.49542001     0.93878902    -0.38742245     0.35533970    -0.56662970
O       1.59119498     0.94913703     0.95026698    -0.32397352    -0.25600149    -0.76221770
O       4.61599998     8.45340601     3.71611602    -1.17286493    -0.56289877    -0.17276251
O       4.33358199     3.47493502     3.82996501     0.29770120     2.58728767     1.14681065
O       1.43280699     8.30787798     3.52079802     1.29308231     1.27011721     2.30170048
O       1.49004301     3.73188899     3.70537499     0.21023661     0.58560341     0.72974851
O       3.03408899     1.29222603     3.15994602    -1.49912442    -0.26525464     0.72970840
O       0.04988702     6.10284702     3.17317201    -0.36553747    -0.82153770     0.53636523
O       0.03894401     1.54662899     3.42054602     0.39111456     0.20680856    -1.41788730
O       3.07173000     7.98076902     1.43354599    -0.20414901    -1.03468017    -0.15047824
O       2.96027199     3.29577301     1.54221899    -0.08769573    -1.19328130     0.86133068
O       0.11338998     7.96793801     1.40622298    -1.08295291    -0.17525340    -0.89502268
O       5.84671401     3.32538900     1.47533898     0.87936363    -0.51882978    -0.27069613
