# total energy = -4981.30428858 eV

CRYSTAL
PRIMVEC
        4.23735002     0.00000000     0.00000000
        0.00000000     2.51835241     0.00000000
        0.00000000    -0.00010053     5.74147026
PRIMCOORD
6 1
Ti      2.11867501     1.25912578     2.87073487     0.00000000     0.00000000     0.00000000
Ti      0.00000000     0.00000000     0.00000000     0.00000000     0.00000000     0.00000000
O       2.11867501     0.49077014     1.11892790     0.00000000    -0.59366768     1.29041710
O       2.11867501     2.02748142     4.62254183     0.00000000     0.59366768    -1.29041710
O       0.00000000     0.76831587     3.98966403     0.00000000     0.59362397     1.29028417
O       0.00000000     1.74993569     1.75180570     0.00000000    -0.59362397    -1.29028417
