# total energy = -19960.02479273 eV

CRYSTAL
PRIMVEC
        7.60600008     0.00000000     0.00000000
        0.00000000     7.60600008     0.00000000
       -1.89786986    -1.89786986     4.85670466
PRIMCOORD
24 1
Ti      3.74346898     6.52297100     1.22320798     0.63930067    -0.36343199     1.17022415
Ti      3.78808301     2.82050098     1.21153401    -0.75423493     0.43468526    -0.83280119
Ti      0.05391602     6.64814402     1.20619900    -0.75707318     1.55096431     0.56119515
Ti      0.02211998     3.01465501     1.19884302     1.07623384    -1.51034266    -0.30956942
Ti      5.83572824     2.89079022     3.57728483    -0.05512267     0.17984025    -0.38306186
Ti      5.73252524    -0.93119178     3.68027680    -0.38387793    -0.12004768    -0.50633653
Ti      1.89594922     2.91995424     3.61805280     0.69820312    -2.73636723     0.30683145
Ti      1.84539522    -1.05196976     3.72977980     0.04955315     1.39818082    -0.45646791
O       3.68986501     4.64176498     0.79447899     0.95688576     0.82688200    -0.11388603
O       3.56451600     0.77955101     0.84654400     0.79593516     1.61942175    -0.39923796
O      -0.01691102     4.86640998     0.79630799    -0.20253436    -2.10573761    -1.10365750
O      -0.11257002     1.00422702     0.80565300     0.52473972    -0.23814338    -0.69141206
O       5.98939523     4.69021920     3.98845582    -0.62546967     0.82989276     0.48166936
O       6.00748822     0.93489824     3.93350383    -1.37552785     1.09294833     1.19556007
O       1.59713420     4.59984822     4.09065683     0.47860100     2.96976666     0.89217236
O       1.71798124     0.92876624     3.98645082     1.02066303    -1.55574142     1.00433575
O       3.68617220     3.00818920     3.10669179     3.42921166    -0.86917126     1.08371704
O       3.73109523    -1.13522379     3.32158183     0.47636260     0.25203145    -0.10000849
O       0.09565625     2.79897125     3.22257383    -2.72952835    -0.03108233    -1.41811459
O      -0.04304180    -0.95073578     3.15208879     0.63879339    -0.32053518     0.28031231
O       5.68652301     6.56148600     1.62226700    -0.91322944     0.27616975     0.04274024
O       5.78402403     3.02292398     1.53772199    -0.99997387    -0.54253999     0.91246814
O       1.89139797     6.52878798     1.70415300    -0.40628716     0.02157568     0.02772190
O       1.93280001     3.17075600     1.70461301    -1.58162370    -1.05921828    -1.64439437
