# total energy = -19953.47687068 eV

CRYSTAL
PRIMVEC
        5.59679690     0.00000000     0.00000000
        0.59421355     5.92697215     0.00000000
        0.00000000     0.00000000    10.02960954
PRIMCOORD
24 1
Ti      2.38070015     3.51231824     3.72091369     0.17019089    -1.11774072     0.69218982
Ti      3.81031048     2.41465396     6.30869619    -0.17019089     1.11774072    -0.69218982
Ti      5.06895930     2.41465597     1.29385118    -0.22063956     0.02958441    -0.17303634
Ti      1.12205133     3.51231651     8.73575887     0.22063956    -0.02958441     0.17303634
Ti      2.08359349     0.54883222     1.29389142     0.17019089    -1.11774072    -0.69218982
Ti      4.10741715     5.37814021     8.73571863    -0.17019089     1.11774072     0.69218982
Ti      0.82494460     0.54883004     6.30865601     0.22063956    -0.02958441    -0.17303634
Ti      5.36606598     5.37814234     3.72095393    -0.22063956     0.02958441     0.17303634
O       1.98065432     2.08698767     5.11803311     1.13072582     1.21730698    -0.27130779
O       4.21035631     3.83998459     4.91157677    -1.13072582    -1.21730698     0.27130779
O       1.23624474     2.08701164     0.10326046    -0.71487570     0.45006483     0.37648112
O       4.95476595     3.83996068     9.92634919     0.71487570    -0.45006483    -0.37648112
O       3.91324964     0.87649834     0.10322794    -1.13072582    -1.21730698    -0.27130779
O       2.27776098     5.05047392     9.92638171     1.13072582     1.21730698     0.27130779
O       4.65765928     0.87647442     5.11806568     0.71487570    -0.45006483     0.37648112
O       1.53335129     5.05049784     4.91154425    -0.71487570     0.45006483    -0.37648112
O       0.56477892     3.60512058     2.70924782     0.22315667     0.29696767     0.52038607
O       5.62623165     2.32185168     7.32036206    -0.22315667    -0.29696767    -0.52038607
O       3.23452789     2.32179648     2.30558901     0.52588181     0.58759988    -0.00624984
O       2.95648274     3.60517572     7.72402075    -0.52588181    -0.58759988     0.00624984
O       0.26767225     0.64163433     2.30555695     0.22315667     0.29696767    -0.52038607
O       5.92333832     5.28533788     7.72405276    -0.22315667    -0.29696767     0.52038607
O       2.65937607     0.64168952     7.32039406    -0.52588181    -0.58759988    -0.00624984
O       3.53163456     5.28528274     2.70921581     0.52588181     0.58759988     0.00624984
