# total energy = -19950.55012435 eV

CRYSTAL
PRIMVEC
        6.17726038     0.00000000     0.00000000
        0.00002872     5.37911454     0.00000000
        0.00000000     0.00000000    10.15237655
PRIMCOORD
24 1
Ti      2.23897679     3.18765818     3.76645942     0.20092202    -0.24736567     0.15859573
Ti      3.93831238     2.19145612     6.38591754    -0.20092202     0.24736567    -0.15859573
Ti      5.32749995     2.19145786     1.30968849     0.20208004     0.24699903    -0.15826329
Ti      0.84978921     3.18765662     8.84268858    -0.20208004    -0.24699903     0.15826329
Ti      2.23896266     0.49810103     1.30972920     0.20079243    -0.28390003    -0.15812187
Ti      3.93832651     4.88101345     8.84264787    -0.20079243     0.28390003     0.15812187
Ti      0.84977508     0.49809906     6.38587683    -0.20228367    -0.28404813    -0.15735903
Ti      5.32751409     4.88101536     3.76650013     0.20228367     0.28404813     0.15735903
O       1.95515204     1.89407759     5.18068020     0.87783305     0.76939031    -0.27250335
O       4.22213712     3.48503672     4.97169676    -0.87783305    -0.76939031     0.27250335
O       1.13353448     1.89409933     0.10452442    -0.87803668     0.76928566    -0.27293659
O       5.04375475     3.48501504    10.04785225     0.87803668    -0.76928566     0.27293659
O       4.22212299     0.79547939     0.10449146    -0.87752401    -0.76947953    -0.27185158
O       1.95516618     4.58363492    10.04788521     0.87752401     0.76947953     0.27185158
O       5.04374056     0.79545771     5.18071316     0.87771967    -0.76966619    -0.27272961
O       1.13354849     4.58365666     4.97166380    -0.87771967     0.76966619     0.27272961
O       0.22445152     3.27188241     2.74241029    -0.43039152    -0.03756486     0.16838675
O       5.95283765     2.10723190     7.40996667     0.43039152     0.03756486    -0.16838675
O       3.31308789     2.10718190     2.33381049    -0.42939059     0.03758389    -0.16903467
O       2.86420127     3.27193240     7.81856630     0.42939059    -0.03758389     0.16903467
O       0.22443733     0.58232509     2.33377805    -0.43061649    -0.03747024    -0.16881998
O       5.95285184     4.79678922     7.81859874     0.43061649     0.03747024     0.16881998
O       2.86418708     0.58237508     7.40999905     0.42947492    -0.03797649    -0.16844974
O       3.31310208     4.79673923     2.74237785    -0.42947492     0.03797649     0.16844974
