# total energy = -19958.21891292 eV

CRYSTAL
PRIMVEC
        7.60600008     0.00000000     0.00000000
        0.00000000     7.60600008     0.00000000
       -1.89786986    -1.89786986     4.85670466
PRIMCOORD
24 1
Ti      3.65935498     6.58288403     1.40048902    -1.00004432     0.85522842    -1.59219659
Ti      3.78999900     2.96631302     1.30565400     1.15127923    -1.09024893    -1.19631675
Ti     -0.12975902     6.58782802     1.06049899     1.08207899    -0.29511596     2.28771445
Ti      0.13264098     2.82526400     1.09802501    -0.34746749     0.29119322     0.36572979
Ti      5.74863720     2.88650024     3.52641783     1.18796452     0.19007299     0.63603588
Ti      5.76573524    -1.02059675     3.65824482     1.25860072     0.06521966    -0.29589835
Ti      1.84174321     2.94558325     3.72645180    -0.23900624     0.15290073    -1.17709389
Ti      1.82823522    -0.92437979     3.72775781    -0.86330477    -0.42325387     0.30984659
O       3.71447901     4.80426198     0.65189001     0.53113766    -0.56054183     2.65712297
O       3.55072902     1.11090101     0.78192400     1.35880461    -2.02967073     1.66445567
O       0.09826800     4.76948101     0.60819601    -0.49405874    -0.87285025     0.43563194
O       0.29226999     0.85037001     0.71673899    -1.27074198     1.41927235     0.46453938
O      -1.36348376     4.78097321     4.15887079    -1.51117544    -1.12988919    -1.98585217
O       5.91776622     0.91680922     4.06658281    -1.04395415    -0.27226578    -1.60634255
O       1.49489620     4.77443422     4.28753082     0.88637297     0.02350426    -0.81543493
O       1.75881923     0.98109923     4.15149882     1.34218808     0.51906247    -1.57050033
O       3.87891221     3.20455222     3.41378880    -0.76774969    -0.83807247    -1.62109374
O       3.79917324    -1.30839678     3.37123983     0.30340828     0.98539288    -0.50486380
O       0.04276324     2.70914622     3.07163279     1.06667139     0.31537523    -0.10531088
O       0.02874824    -1.09112078     3.11578581    -2.21399344     1.34805663    -0.23504700
O       5.60092198     6.64446602     1.43934900     0.31745525     0.15494090     1.04855514
O       5.81802599     3.10309502     1.51000099    -0.92588365    -0.88465805     0.68457035
O       1.76709000     6.29653701     1.76926598     2.65491954     1.08864148    -0.26246242
O       2.03566699     2.85773702     1.32483800    -2.46350084     0.98770507     2.41421123
