# total energy = -39032.02836751 eV

CRYSTAL
PRIMVEC
        5.93200024     0.00000000     0.00000000
        0.00000000     9.29399984     0.00000000
        0.00000000     0.00000000     9.29399984
PRIMCOORD
46 1
Ti      4.47122602     7.09790102     6.87746700    -1.14922646     0.38240032     0.94865129
Ti      4.46761502     6.73913102     2.30635602     0.37413961     0.58684269     0.13921449
Ti      4.42972001     2.23949199     6.94060102     1.39653068    -0.07925531     0.62951350
Ti      4.27482199     2.71017800     2.07779198     0.93602639    -0.82832850     1.68972243
Ti      1.42972601     6.88707702     7.03428503    -0.76566581     0.74763620     0.08520459
Ti      1.53979901     7.00355999     2.08960602    -0.65655920     0.42749594     1.14827361
Ti      1.49566298     2.39466898     6.91553400    -0.97773896    -1.12194473    -0.20069422
Ti      1.34365697     1.86935700     2.84606702    -1.03322596     2.05882885    -1.36020587
Ti      3.01904601     4.72281398     4.92601000     0.18424635     0.82744944    -1.79164356
Ti      2.94931400     4.88527298     8.89775303     1.63800647     0.23768932     0.96848350
Ti      2.96386399     9.29300001     4.62999603    -1.08259167    -1.75460090     0.83908806
Ti      2.91017499     0.05797301     0.01124502     1.14944783    -1.45376629    -0.32234292
Ti      0.05285698     4.62144299     4.63340102     0.03889438     0.39983266    -1.10564676
Ti      0.05837402     4.67546500     0.05059400    -1.15849940     0.72165030    -0.46886989
Ti      5.82734602     9.02834101     4.83174099     1.46919060     0.12426789    -1.60433863
Ti      0.00047700     0.13007500     0.02041301    -2.08415499    -2.08353150    -0.31986772
O       4.62369898     5.74834197     5.54397197    -0.73026813    -1.40545267    -1.05810910
O       4.44956299     5.92002501     0.59573298    -0.33221262    -2.20635854     0.49631771
O       4.48966399     0.84051599     5.60134998    -0.13602761     0.88809253    -0.19023265
O       4.38661100     0.81959301     0.96428901     0.19934182     1.71910500    -0.33323900
O       1.47588398     5.58187800     5.55418801    -0.18821099     0.27057965    -0.58799608
O       1.48409501     5.75370201     0.65045399     0.91083214    -0.61374286     0.26566936
O       1.49916100     0.78364499     5.74705999     0.15375845     1.43611874    -1.31697095
O       1.38192602     0.64086598     1.11782799     1.33754775     1.73338774     0.46215828
O       4.50769898     8.46824102     8.23251399    -0.35129767     0.52118723     1.35880307
O       4.44376500     8.09335799     3.96570998     0.14947551     1.56016012    -0.73595464
O       4.49109499     3.92111198     8.38425001    -0.33061339    -1.85147290     0.20236466
O       4.39627399     3.96639500     3.75734898    -0.47714190    -1.67887211    -0.77292198
O       1.53861699     8.22234801     8.25716999     0.23651664     2.35933667     2.37213639
O       1.44382001     8.25206798     3.91065401     0.45716519     1.15448643    -1.25739590
O       1.54820600     3.77355202     8.40444198    -0.40630387    -0.38683830     0.15770793
O       1.59003301     3.76793099     3.94812600     0.25549961    -1.80175777    -0.68111119
O       2.95941102     5.99608498     7.42992397     1.42013290    -1.89882698     2.22071636
O       2.93308498     5.93131702     3.05137398    -0.20170955     0.68971668     0.08815622
O       2.97277899     1.45677898     7.85516600    -0.01439073    -0.16623319     0.95743161
O       3.09535501     1.52206300     3.12260399     0.30835869    -0.60764729     1.02398901
O       5.89398600     5.96703299     7.85282502     0.66828987     0.29189514    -0.35574774
O       0.05519001     5.88101999     3.03638202     0.05773003     0.58500820    -0.25188181
O       0.12248098     1.53136800     7.99651300    -0.57510045     0.30748117    -0.33144232
O       3.00277498     7.96849603     6.08690699    -0.17424913     0.05146785    -0.45013322
O       3.03603699     7.85987901     1.35788999    -0.64652650     0.64138660     0.18783381
O       3.08043200     3.25845501     6.14893000    -0.33769653     0.38651228    -0.35976380
O       0.07245601     7.84264799     6.17840898     0.12959085     0.64465576    -0.73653031
O       5.87060499     7.90764398     1.38002701     0.70076471    -0.37048942     0.65022683
O       5.90215898     3.24523500     5.97890799     0.10947324    -0.98359105     1.12595077
O       0.12807598     3.14257202     1.87210999    -0.47154872    -0.46196056    -1.42457320
