# total energy = -19947.25778746 eV

CRYSTAL
PRIMVEC
        5.35743168     0.00000000     0.00000000
        2.19307411     5.26330700     0.00000000
        0.00000000     0.00000000     9.79417810
PRIMCOORD
24 1
Ti      3.24142504     3.11903095     3.63357022     2.00916051    -3.37134202     1.14206722
Ti      4.30908084     2.14427619     6.16060799    -2.00916051     3.37134202    -1.14206722
Ti      5.51389999     2.14427798     1.26347973    -4.33515587     0.02620341     1.21319245
Ti      2.03660593     3.11902937     8.53069853     4.33515587    -0.02620341    -1.21319245
Ti      2.14488809     0.48737743     1.26351899     2.00916051    -3.37134202    -1.14206722
Ti      5.40561782     4.77592987     8.53065927    -2.00916051     3.37134202     1.14206722
Ti      0.94006885     0.48737549     6.16056868     4.33515587    -0.02620341     1.21319245
Ti      6.61043706     4.77593181     3.63360948    -4.33515587     0.02620341    -1.21319245
O       2.46787962     1.85329992     4.99789413     0.67862468     1.47693373    -1.09425625
O       5.08262621     3.41000723     4.79628408    -0.67862468    -1.47693373     1.09425625
O       1.75531377     1.85332119     0.10083656     0.76355004    -0.76880898     0.44812828
O       5.79519218     3.40998605     9.69334133    -0.76355004     0.76880898    -0.44812828
O       3.98608924     0.77835361     0.10080476    -0.67862468    -1.47693373    -1.09425625
O       3.56441664     4.48495354     9.69337313     0.67862468     1.47693373     1.09425625
O       4.69865515     0.77833238     4.99792588    -0.76355004     0.76880898     0.44812828
O       2.85185063     4.48497483     4.79625228     0.76355004    -0.76880898    -0.44812828
O       1.52859990     3.20144183     2.64565187     0.36949697     0.46094266     0.41960599
O       6.02190592     2.06186532     7.14852634    -0.36949697    -0.46094266    -0.41960599
O       3.73247606     2.06181634     2.25146839     1.65347577     0.01234798    -0.86033746
O       3.81802977     3.20149081     7.54270966    -1.65347577    -0.01234798     0.86033746
O       0.43206292     0.56978815     2.25143708     0.36949697     0.46094266    -0.41960599
O       7.11844296     4.69351899     7.54274092    -0.36949697    -0.46094266     0.41960599
O       2.72149279     0.56983719     7.14855755    -1.65347577    -0.01234798    -0.86033746
O       4.82901303     4.69346997     2.64562061     1.65347577     0.01234798     0.86033746
