# total energy = -19912.30003834 eV

CRYSTAL
PRIMVEC
        6.51381515     0.00000000     0.00000000
        1.03411885     6.85510745     0.00000000
        0.00000000     0.00000000    11.69140515
PRIMCOORD
24 1
Ti      2.97376255     4.06233026     4.33742796    -0.18513724    -1.51539925     0.70245444
Ti      4.57417138     2.79277700     7.35397746     0.18513724     1.51539925    -0.70245444
Ti      6.03904611     2.79277931     1.50822799     0.22301063     0.12746994    -0.46023715
Ti      1.50888783     4.06232821    10.18317756    -0.22301063    -0.12746994     0.46023715
Ti      2.45670326     0.63477666     1.50827488    -0.18513724    -1.51539925    -0.70245444
Ti      5.09123067     6.22033080    10.18313067     0.18513724     1.51539925     0.70245444
Ti      0.99182851     0.63477414     7.35393057    -0.22301063    -0.12746994    -0.46023715
Ti      6.55610543     6.22033332     4.33747485     0.22301063     0.12746994     0.46023715
O       2.42579442     2.41379979     5.96603462     1.68306661     1.77540987    -0.39256518
O       5.12213950     4.44130747     5.72537074    -1.68306661    -1.77540987     0.39256518
O       1.55941703     2.41382750     0.12036956    -1.06146568     0.67294794     0.52101599
O       5.98851697     4.44127983    11.57103553     1.06146568    -0.67294794    -0.52101599
O       4.60508020     1.01375367     0.12033164    -1.68306661    -1.77540987    -0.39256518
O       2.94285372     5.84135359    11.57107345     1.68306661     1.77540987     0.39256518
O       5.47145767     1.01372602     5.96607260     1.06146568    -0.67294794     0.52101599
O       2.07647619     5.84138131     5.72533282    -1.06146568     0.67294794    -0.52101599
O       0.86567166     4.16966494     3.15814026     0.48827247     0.82354342     1.15176774
O       6.68226226     2.68544226     8.53326516    -0.48827247    -0.82354342    -1.15176774
O       3.89868191     2.68537850     2.68759964     0.55999419     1.20048502     0.41501477
O       3.64925200     4.16972870     9.00380558    -0.55999419    -1.20048502    -0.41501477
O       0.34861236     0.74211114     2.68756225     0.48827247     0.82354342    -1.15176774
O       7.19932155     6.11299606     9.00384291    -0.48827247    -0.82354342     1.15176774
O       3.13219271     0.74217489     8.53330241    -0.55999419    -1.20048502     0.41501477
O       4.41574121     6.11293230     3.15810294     0.55999419     1.20048502    -0.41501477
