# total energy = -19518.30936937 eV

CRYSTAL
PRIMVEC
        5.93400000     0.00000000     0.00000000
        0.00000000     9.29699974     0.00000000
        0.00000000     0.00000000     4.64899994
PRIMCOORD
23 1
Ti      4.44575402     7.07489398     2.24914503     0.91041100    -0.50076084     0.07186930
Ti      4.49765800     2.32692101     2.33678800    -1.01476209    -0.12250977     0.41838189
Ti      1.35521003     7.00877799     2.18767802    -0.83740475    -0.25491186     0.95633503
Ti      1.47140401     2.29850499     2.34920498     0.93789122    -0.34291690     0.28093863
Ti      2.97894898     4.58268599     0.19275800     0.01336948    -0.00768760     0.44946731
Ti      2.96376599     9.14964298     4.62086798    -0.85851917     0.89064332    -1.05662635
Ti      0.00751098     4.57959999     4.62503102     0.03050049     0.88449504    -0.58737645
Ti      5.89090598     0.09642202     0.01167000     0.84973191    -0.15920585    -0.20728833
O       4.50544098     5.63415801     0.94768200    -0.70584367    -0.29390343    -0.13747642
O       4.50883100     0.93976302     0.87250703    -0.56487440     0.18362723     0.46264602
O       1.40235702     5.61104101     0.90809600     1.25519529    -0.17921701    -0.23985085
O       1.48487200     0.88574598     0.87395401     0.26873720     0.10523915     0.31646409
O       4.48365502     8.35374802     3.74227600    -0.18932171    -0.25572896    -0.25267886
O       4.41381701     3.74425401     3.82451798    -0.07273114    -0.00043195    -0.62718305
O       1.57474799     8.40217202     3.51380399     0.02107457     0.29003340     1.56377432
O       1.62250899     3.70938700     3.83138701    -0.65859732     0.13511486    -0.66872284
O       3.04261700     1.40196400     3.21009202    -0.10290510     0.07016183    -0.24069880
O       0.04219898     6.00881900     3.29825300     0.02391692     0.86114581    -1.09456067
O       5.92305201     1.45628198     3.30015201     0.23007062     0.32364647    -0.72176935
O       2.93718002     7.85789697     1.38711402     0.46970935    -0.45562536     0.20593953
O       2.95724599     3.31921202     1.47308098     0.25051193    -0.62161121     0.59619276
O       5.89042898     7.90477298     1.38212202    -0.04096052     0.07410873    -0.08426588
O       0.07666201     3.29314300     1.43917902    -0.21519961    -0.62370512     0.59648844
