# total energy = -19074.12180291 eV

CRYSTAL
PRIMVEC
        5.17600016     0.00000000     0.00000000
        0.00000000     5.50899976     0.00000000
        0.00000000     0.00000000     9.26300011
PRIMCOORD
22 1
Ti      1.89118699     3.24643797     3.28353902    -0.40273929     1.52575437     0.28253915
Ti      3.38745101     2.22293498     5.98284200    -0.79913233     0.60937661    -1.87026124
Ti      4.51358798     2.21889498     1.30530099    -0.44886644    -0.13972511    -2.64573427
Ti      0.66613197     3.34012902     8.05788301     1.17220313    -0.24686379     1.17427056
Ti      1.87683999     0.58733002     1.30996997     0.28225247    -1.17447136    -2.06773155
Ti      3.28299502     4.98068502     8.03918903     0.34290070     0.75684949     0.66039169
Ti      0.69653702     0.51232502     5.90229900    -0.33798038    -0.19151640    -1.62686767
Ti      4.47056000     4.89174202     3.45824202    -0.57285151     0.89204406     1.09390556
O       3.25468499     3.52516500     4.45751102     1.64109976    -0.23183003     1.74681405
O       0.84462399     1.93314000     0.07037100    -0.15365381     0.32385010    -0.17882466
O       4.31633298     3.82566698     9.11813498     0.55290514    -0.60038546    -0.08875066
O       3.40033299     0.84815302     0.27444000     0.97127597     0.39182573    -2.24867635
O       1.82606099     4.70945199     8.96031702    -3.35197569    -0.09214503     1.56737386
O       4.32640900     0.98792498     4.67123200     0.89248192    -1.86897595    -0.57680587
O       0.97310902     4.59101498     4.40669900    -1.62302387     1.68672169     1.69304789
O       0.08622700     3.37372098     2.55516902    -0.06257836    -0.34812595    -0.53775440
O       5.04885501     2.31096298     6.58525199     2.32109149    -0.40736959     1.27219029
O       2.72824401     2.02018702     2.15277899    -0.10638046     0.12421004     1.15590825
O       2.43927799     3.23503098     7.25397201     0.26768845     0.35866414    -1.10332608
O       0.06010501     0.66404299     1.95865900     0.30133109    -1.65337524     2.27388936
O       2.54682199     0.64321701     6.56468102    -1.26196166    -0.83665193     0.39520004
O       2.68317398     4.65028600     2.36338799     0.37591368     1.12213936    -0.37079718
