# total energy = -19518.15448877 eV

CRYSTAL
PRIMVEC
        7.60600008     0.00000000     0.00000000
        0.00000000     7.60600008     0.00000000
       -1.89786986    -1.89786986     4.85670466
PRIMCOORD
23 1
Ti      3.76168098     6.60244300     1.15770599     0.94520575     0.95520452    -0.07588434
Ti      3.85563000     2.80701802     1.14592000    -0.68823855    -1.41790838     1.89285173
Ti      0.06247599     6.82606701     1.19498002    -1.18447116     0.49488792     0.37157494
Ti     -0.08448299     2.95840399     1.08414501     0.91443555    -1.46770399     1.68066494
Ti      5.63466825     2.93752425     3.79808880    -0.59732868     0.29423973    -1.23716028
Ti      5.73023924    -0.96410179     3.55286679    -0.78722374     0.51447125    -0.06101256
Ti      2.06009524     2.72714121     3.76719982     0.42717044     1.30485874    -2.42162038
Ti      1.89622322    -1.01459276     3.58326983    -0.11400327    -0.61312914     0.85428791
O       3.98801602     4.61403302     0.80183900    -0.66404909     1.53752077     1.19579378
O       4.02557300     0.93306898     0.63124501    -0.31842456    -1.11787750     0.61937332
O      -0.02678902     4.91034201     0.83952299     0.71591674    -1.09161599     0.51594423
O      -0.22858002     0.98737299     0.80919298     0.49284132     0.14496476    -0.36348187
O       5.59437521     4.84496920     3.95025880     0.84870013    -0.95360118     0.85771570
O       5.65483323     0.98152923     4.14047183     0.43792254     0.23180458    -1.14099173
O       1.55152722     4.57849523     4.03554280     0.25930845     0.72676757     0.05044223
O       1.91615125     0.93317524     4.09634479    -0.69299483    -1.38911459    -0.50007204
O       3.85836923     2.66463823     3.43275382    -0.73293359     0.61835774    -0.96641324
O       3.70889021    -1.16372380     3.07925681     0.39354579     0.17870125     0.76167751
O      -0.05165775    -0.88931576     3.21476280     0.87875659     0.08951170    -0.02041945
O       5.69139102     6.62323300     1.64704302    -0.37208967     0.22779134    -0.41616277
O       5.73199299     2.77484399     1.82810700     0.81743602     0.56773090    -0.62957855
O       1.92104301    -0.59510702     1.66696798    -0.73081603    -0.60120925    -1.07854861
O       1.87175899     2.66082000     1.70776601    -0.24866639     0.76534750     0.11101976
