# total energy = -4986.58098727 eV

CRYSTAL
PRIMVEC
        2.96672091     0.00000000     0.00000000
        1.57859772     4.37215230     0.00000000
       -0.00001026    -0.00006159     4.72347891
PRIMCOORD
6 1
Ti      2.27265418     2.18604530     2.36173945     0.00000000     0.00000000     0.00000000
Ti      0.00000000     0.00000000     0.00000000     0.00000000     0.00000000     0.00000000
O       1.79100387     0.85205608     0.92053648    -3.14029823     1.53763827     1.65739131
O       2.75430448     3.52003453     3.80294248     3.14029823    -1.53763827    -1.65739131
O       0.48164599     1.33396433     3.28227688     3.13980972    -1.53806225     1.65750752
O       1.09694155     3.03812625     1.44120208    -3.13980972     1.53806225    -1.65750752
