# total energy = -19073.81599375 eV

CRYSTAL
PRIMVEC
        7.60600008     0.00000000     0.00000000
        0.00000000     7.60600008     0.00000000
       -1.89786986    -1.89786986     4.85670466
PRIMCOORD
22 1
Ti      3.76216402     6.53640999     1.38188098     1.87321236     1.11899722    -1.24544258
Ti      3.71433100     2.83992401     1.16728902    -0.53170716    -2.03615351     1.01398870
Ti     -0.04847798     6.69159598     1.02068798    -0.10585930    -0.81738228     2.16624135
Ti     -0.16711899     2.82523500     1.03738199    -0.00407571     1.29018776     0.05715719
Ti      5.64228522     3.09116022     3.53650580    -0.51321578    -2.04695677    -0.92102272
Ti     -1.27906380    -0.72370180     3.87053280    -0.69938763     0.48263172    -2.64645881
Ti      1.76527022     2.76275224     3.69331181     0.68786702    -1.54313992    -0.78464030
Ti      1.94265720    -1.14955180     3.77221780    -0.96943943     0.57279289     1.29949516
O       3.80028499     4.60521201     0.77444598    -0.99482369     1.40892572     0.86852591
O       3.91508799     0.86898101     0.82409699    -0.12270363    -1.69026030     1.37031879
O      -0.10351099     4.85703000     0.59165901     0.40519032     0.37513797     1.40089436
O       7.23363001     0.94625401     0.53814299    -0.30986613     0.95700712     2.01834733
O       5.67033320     4.88923223     4.01297181     0.91975028     0.71980451    -1.49836569
O       5.49469425     1.12512921     3.92087179     1.06861592    -1.97542069     0.38077178
O       2.04758723     4.47259823     4.29924881    -0.56429899     3.15612389    -1.23468945
O       2.14335625     0.79794521     4.15084682    -0.61512997     0.13380000    -1.69527061
O       3.62513124     2.89037021     3.14722682     0.36121930     0.08091522    -0.73975242
O      -0.08544577     2.70433123     3.07890580     0.98639381     0.56832714     0.72961250
O       5.84314403     6.74264899     2.02086098     0.03759391    -0.51983560     0.02505927
O       5.67611198     3.18915898     1.57863099    -0.94299074    -0.79332317     0.34025709
O       1.98920300     6.57376000     1.90786798    -0.87178684     0.11444139    -1.25325745
O       1.69947697     2.57690699     1.23565698     0.90544157     0.44337996     0.34823086
