# total energy = -4987.38214683 eV

CRYSTAL
PRIMVEC
        3.71377403     0.00000000     0.00000000
       -0.00000750     3.36008164     0.00000000
       -1.85691322    -1.68007455     4.52521974
PRIMCOORD
6 1
Ti     -0.00016234     2.52018748     1.13130471     0.00082507    -0.00455523     3.92894842
Ti      1.85701536    -0.84018029     3.39391448    -0.00082507     0.00455523    -3.92894842
O       0.00003773     0.84001408     0.73712124     0.00106032     0.00493652     0.60391353
O       1.85681514     0.83999301     3.78809806    -0.00106032    -0.00493652    -0.60391353
O      -0.00001904    -0.84000234     2.99973101     0.00083818    -0.00001028     1.78622779
O       1.85687191     2.52000938     1.52548828    -0.00083818     0.00001028    -1.78622779
