# total energy = -39034.51251558 eV

CRYSTAL
PRIMVEC
        5.93200024     0.00000000     0.00000000
        0.00000000     9.29399984     0.00000000
        0.00000000     0.00000000     9.29399984
PRIMCOORD
46 1
Ti      4.40039501     7.01356398     6.85821299     1.43865565     0.73988355     0.74404154
Ti      4.37322398     6.77709001     2.49741001    -0.26383333     0.91344207    -0.90087863
Ti      4.45134399     2.16477798     7.15033698    -0.05287141     0.78155677    -0.92041336
Ti      4.49371500     2.60350402     2.00977498    -0.31468437    -1.01530176     1.01258410
Ti      1.47709002     6.85493500     7.07919402    -0.86037731     1.17083608    -0.19249419
Ti      1.45681301     7.22189402     2.14767899    -0.05028154    -0.33381005    -0.18796108
Ti      1.48127899     2.45264300     6.87778202     0.05188694     0.18164413    -0.47340557
Ti      1.51049100     2.06872802     2.65051798    -0.25458713     0.80947511    -0.64084873
Ti      2.89801100     4.72831801     4.71566802     0.45076263    -1.75362259    -0.56812968
Ti      2.93383398     4.72944198     9.15718799     0.08355548    -0.13451425    -0.06164196
Ti      3.08448301     9.25167000     4.66774600     0.31453782     0.54954188     0.27184438
Ti      3.01322602     9.16508099     9.20496301    -0.22173510    -0.12441161    -0.08157753
Ti      5.92407798     4.68847800     4.69008998    -1.06589955    -1.57223608    -0.42734759
Ti      0.01749402     4.71615502     0.02481598    -0.08098541    -0.06446735    -0.14551447
Ti      0.06281202     9.23480602     4.71979402    -0.11666848    -0.51066524     0.93678410
Ti      5.92958201     9.27710702     0.05749199     0.00328844    -0.27078611    -0.34883069
O       4.25613801     5.71496999     5.46342199     1.39627434     0.34482543     0.09999384
O       4.40029098     5.51138101     0.87952201     0.31207136    -0.12071719     1.02254559
O       4.55803501     0.73082701     5.73456998    -1.25036855     0.94928275    -1.31924226
O       4.37699898     1.00434498     0.54983802     0.40547983     1.30345388     2.05564273
O       1.38153601     5.48750098     5.65253401     0.73550033     0.81706989    -0.04880496
O       1.51172600     5.58054902     0.88103900    -0.25735467    -0.03071364    -0.22724729
O       1.47901300     1.00251302     5.48060400     0.44422791     0.06023557    -1.01733550
O       1.47256101     0.63878600     0.95593198     0.36564829     1.46269727     0.50034123
O       4.49266098     8.49491298     8.13110098    -0.37008010    -0.55994765     1.34934732
O       4.54413998     8.39861801     3.78160699    -1.22458372    -0.26190886    -0.10423693
O       4.40606202     3.65867002     8.53096202     0.03810068    -0.52329811     0.48666193
O       4.45071802     3.83922900     3.83585602    -0.28236020    -0.87186706    -2.27025537
O       1.40448299     8.12423601     8.47016098     0.42306695     1.01146130     0.26472525
O       1.40544498     8.33758800     3.64145101     1.15086040     1.22646063     0.59068854
O       1.45150499     3.98744599     8.14608500     0.19120761    -1.23386438     1.03710935
O       1.46001099     3.56189699     3.98236901    -0.53965573    -0.12889073    -1.27098315
O       3.03814503     6.05933299     7.90231400     0.19574793     0.44765828    -0.57990508
O       2.74628398     5.99185903     3.09362402     0.80051815     0.35325171     0.74474628
O       2.85019402     1.36927000     7.80362598    -0.67241160     0.45862815    -0.01297688
O       3.14846700     1.31021800     3.02782702     0.37172021     0.82802099     0.46882104
O       5.87442602     6.04622701     7.88130899    -0.65160674     0.06633577    -0.16267864
O       5.92693501     6.13627002     3.16369900     0.79520162    -1.06491739     0.72109443
O       0.04906902     1.40813997     7.85424899     1.15430979     0.45229989     0.07578509
O       2.94219402     7.97841498     6.21106001    -1.14012115    -0.12603347    -1.52634984
O       3.22349401     7.98161798     1.45053803    -1.73539989    -0.72104198    -0.29273486
O       3.10615102     3.31154202     6.05703202    -1.04811034    -0.72073859     0.75110333
O       0.04101103     7.90511498     5.98240199     0.62542519    -1.38482727     0.89996280
O       5.75647601     7.98497201     1.48208900     0.53669716    -0.80742954    -0.44881631
O       5.75860098     3.29467698     6.10640801     0.68121224    -0.27750595     0.20183090
O       0.27038100     3.19974999     1.47343902    -0.51198036    -0.31454374    -0.00504296
