# total energy = -19961.47391672 eV

CRYSTAL
PRIMVEC
        7.60600008     0.00000000     0.00000000
        0.00000000     7.60600008     0.00000000
       -1.89786986    -1.89786986     4.85670466
PRIMCOORD
24 1
Ti      3.78802999     6.70157499     1.23804399     0.06351321    -1.47169948    -0.82856170
Ti      3.79449198     2.82833201     1.22445303     0.53935722     1.84768566    -0.33224836
Ti     -0.02682003     6.59142601     1.18956299     0.01346204    -0.27151374    -0.44342984
Ti      0.03759598     2.79240802     1.20828301    -0.34514682     0.31149801     0.85882154
Ti      5.70469925     2.72361122     3.63401184     0.63259471     2.04270468     0.22338190
Ti      5.70399121    -0.94719976     3.65748180    -0.00753591    -2.35511260    -0.37418538
Ti      1.91681124     2.86918820     3.54593383    -0.64576339     1.08727031     2.03980705
Ti      1.85168121    -0.87790675     3.63302482    -0.05617965    -0.89121848    -0.38327912
O       3.78776900     4.81993801     0.73768298     0.32775870    -0.34466499     0.24402992
O       3.73108099     1.02941099     0.83146298     0.51181556    -0.42649732    -0.15016071
O      -0.02847402     4.70782800     0.76462498     0.08495674    -0.67883628    -0.07439953
O      -0.06893301     0.84498700     0.85409399     0.19633542     1.27709698    -0.36197289
O       5.67997524     4.67548124     4.02816083     0.19615108     0.43010972     0.75353868
O       5.88940624     0.84240822     4.08755680    -0.26203690     1.27202985    -0.14813956
O       1.89547825     4.79423423     4.06880583     0.27018550     0.64099965     0.25712764
O       1.65594924     1.02411123     4.04536280     1.08531190    -0.45841038     0.03164155
O       3.82762023     2.96539024     3.22813881     0.20148997    -1.03242969    -0.37290986
O       3.84720222    -0.92270176     3.25710481    -0.90653506     0.46435400    -0.05577779
O       0.03604623     3.00149521     3.16417880     0.28471019    -0.57957932     0.17644228
O       0.03723423    -1.03083379     3.28002279    -0.65836206    -0.03250853    -0.46081873
O       5.69179002     6.59265502     1.67046002     0.24138271     0.32384676     0.04327348
O       5.81751100     2.84651301     1.71799098    -1.57646709    -0.42818088    -1.22860262
O       1.87087198     6.72514597     1.63237598     0.51670914    -0.13300810     0.44178973
O       1.96992200     2.99080001     1.58793900    -0.70770721    -0.59393533     0.14463232
