# total energy = -39481.10051521 eV

CRYSTAL
PRIMVEC
        5.93188753     0.00000000     0.00000000
        0.00000000     9.29428401    -0.00002646
        0.00000000    -0.00002646     9.29428401
PRIMCOORD
47 1
Ti      4.44891576     6.98256880     6.94015338     0.00000000    -0.03971379     0.00706899
Ti      4.44891576     7.04960518     2.40244995     0.00000000    -0.01890636    -0.01890636
Ti      4.44891576     2.41088407     7.05803931     0.00000000    -0.01186590    -0.01186590
Ti      4.44891576     2.29302461     2.33544002     0.00000000     0.00706899    -0.03971379
Ti      1.48297199     6.94089125     6.98030181     0.00000000    -0.01241638    -0.00343679
Ti      1.48297199     7.02080341     2.37364818     0.00000000     0.03488988     0.03488988
Ti      1.48297199     2.14144267     6.78859791     0.00000000    -0.00760738    -0.00760738
Ti      1.48297199     2.33317303     2.29376248     0.00000000    -0.00343679    -0.01241638
Ti      2.96325044     4.65073019     4.63597341     0.00062478    -0.01857186     0.00328227
Ti      3.08553702     4.76408089     0.11692566    -0.01414184     0.00675378     0.00675378
Ti      3.00911563    -0.00604284     4.64111239    -0.00798971     0.00227388     0.00227388
Ti      2.96325044    -0.01115536     0.00360142     0.00062478     0.00328227    -0.01857186
Ti      0.00269333     4.65073019     4.63597341    -0.00062478    -0.01857186     0.00328227
Ti     -0.11959326     4.76408089     0.11692566     0.01414184     0.00675378     0.00675378
Ti     -0.04317187    -0.00604284     4.64111239     0.00798971     0.00227388     0.00227388
Ti      0.00269333    -0.01115536     0.00360142    -0.00062478     0.00328227    -0.01857186
O       4.44891576     5.54711725     5.54299469     0.00000000    -0.00521471    -0.01023891
O       4.44891576     5.62716982     0.98001459     0.00000000     0.01517414     0.01517414
O       4.44891576     0.91811427     5.56526950     0.00000000     0.01945349     0.01945349
O       4.44891576     0.89586592     0.89998847     0.00000000    -0.01023891    -0.00521471
O       1.48297199     5.57124667     5.52063803     0.00000000    -0.03194211    -0.00172675
O       1.48297199     5.45164946     0.80449423     0.00000000     0.01143653     0.01143653
O       1.48297199     0.87472681     5.52188204     0.00000000     0.01350755     0.01350755
O       1.48297199     0.87350926     0.92411789     0.00000000    -0.00172675    -0.03194211
O       4.44891576     8.38103511     8.36129995     0.00000000    -0.01967846     0.00688953
O       4.44891576     8.38420935     3.73705412     0.00000000     0.02339550     0.02339550
O       4.44891576     3.76033022     8.40748545     0.00000000     0.01370578     0.01370578
O       4.44891576     3.71417117     3.73390634     0.00000000     0.00688953    -0.01967846
O       1.48297199     8.38513335     8.35755525     0.00000000    -0.00052939     0.01644555
O       1.48297199     8.36306231     3.71590708     0.00000000    -0.00805913    -0.00805913
O       1.48297199     3.71042648     3.73800457     0.00000000     0.01644555    -0.00052939
O       2.94171541     5.99068682     7.87610604    -0.00858132     0.00911739    -0.01947380
O       2.96765684     6.04733923     3.21261591    -0.00709728     0.00026174     0.01049319
O       2.92367659     1.48393077     7.91707426    -0.01544539     0.01597710     0.00222529
O       2.97416783     1.40431528     3.22136185     0.00158354     0.01086343    -0.01851786
O       0.02422836     5.99068682     7.87610604     0.00858132     0.00911739    -0.01947380
O      -0.00171308     6.04733923     3.21261591     0.00709728     0.00026174     0.01049319
O       0.04226717     1.48393077     7.91707426     0.01544539     0.01597710     0.00222529
O      -0.00822407     1.40431528     3.22136185    -0.00158354     0.01086343    -0.01851786
O       2.97416783     7.86849063     6.05144406     0.00158354    -0.01851786     0.01086343
O       2.96765684     7.85977115     1.40018399    -0.00709728     0.01049319     0.00026174
O       2.92367659     3.26991902     6.13108600    -0.01544539     0.00222529     0.01597710
O       2.94171541     3.22897726     1.34355804    -0.00858132    -0.01947380     0.00911739
O      -0.00822407     7.86849063     6.05144406    -0.00158354    -0.01851786     0.01086343
O      -0.00171308     7.85977115     1.40018399     0.00709728     0.01049319     0.00026174
O       0.04226717     3.26991902     6.13108600     0.01544539     0.00222529     0.01597710
O       0.02422836     3.22897726     1.34355804     0.00858132    -0.01947380     0.00911739
