# total energy = -19072.97520556 eV

CRYSTAL
PRIMVEC
        7.60600008     0.00000000     0.00000000
        0.00000000     7.60600008     0.00000000
       -1.89786986    -1.89786986     4.85670466
PRIMCOORD
22 1
Ti      3.90535102     6.71212202     1.54404301     0.11753674    -0.41763395    -1.44701354
Ti      3.60542902     2.79667700     1.02396401     0.88320409     0.83559701    -0.52366115
Ti      0.20801100     6.65166400     1.06811401    -1.36519946    -0.37120316     0.77103556
Ti      0.06493899     2.90634200     0.89713800    -0.83554250    -0.12241284     1.34209784
Ti      5.51947223     2.94411123     3.37355180     0.94226184     0.27446948    -0.83363989
Ti     -1.36228878    -0.87873878     3.89660181    -0.39811465    -0.28070286    -1.05254343
Ti      1.85353323     3.00198624     3.84097581    -1.14828672    -1.13605212     1.31750651
Ti      1.39199123    -1.17852679     4.06030983     0.25087086     2.46767888    -1.31015881
O       3.47010702     4.76247200     0.97118398     0.20042399     0.81326260    -1.37409626
O       3.89037700     0.92210602     1.00687201     0.08588670    -1.60530099     2.61264544
O       0.41254701     4.74152198     0.63401203    -0.68915798     0.62924611    -0.03217480
O       7.22279500     0.96349397     0.71356599     0.50706415    -0.08961481     0.58570497
O       5.57617723     4.82326320     4.03379779     0.44192729    -0.66473609    -0.73280941
O       5.57036924     1.11347424     3.88948083    -0.96819528    -0.59007894    -1.46486394
O       2.39342325     4.88717321     4.44634982    -0.83314623    -1.86357303    -0.70148205
O       2.13445321     0.78444320     4.08963980    -0.16529860     0.85590025    -0.77899415
O       3.54432725     2.88259522     3.13705683     0.17536293     0.20347872    -0.38300247
O       0.06962925     2.88344223     2.92130084     1.58122157     0.59274337     0.32466566
O       5.95689200     6.56847400     2.02810298    -0.60427657    -0.03810762    -0.35521577
O       5.49414898     3.12630098     1.34043899     1.32794622    -0.46687960     2.27691401
O       1.80347798     6.50926002     2.04156202     0.72822590     0.68256078     1.11518067
O       1.84600399     2.02676099     0.15522499    -0.23471378     0.29135932     0.64390500
