# total energy = -4987.12739129 eV

CRYSTAL
PRIMVEC
        3.17755386     0.00000000     0.00000000
        1.69078233     4.68286363     0.00000000
       -0.00001098    -0.00006597     5.05915761
PRIMCOORD
6 1
Ti      2.43416259     2.34139877     2.52957881     0.00000000     0.00000000     0.00000000
Ti      0.00000000     0.00000000     0.00000000     0.00000000     0.00000000     0.00000000
O       1.91828333     0.91260828     0.98595532    -0.30482008     0.37267563     0.04706560
O       2.95004186     3.77018926     4.07320235     0.30482008    -0.37267563    -0.04706560
O       0.51587464     1.42876383     3.51553513     0.30404900    -0.37235990     0.04649559
O       1.17489679     3.25403370     1.54362254    -0.30404900     0.37235990    -0.04649559
