# total energy = -19951.88402141 eV

CRYSTAL
PRIMVEC
        5.55507679     0.00000000     0.00000000
        1.45535933     5.73035793     0.00000000
        0.00000000     0.00000000    10.02218003
PRIMCOORD
24 1
Ti      2.87589280     3.39580497     3.71815750     0.53296546    -2.03536135     0.94374999
Ti      4.13454347     2.33455334     6.30402310    -0.53296546     2.03536135    -0.94374999
Ti      5.38381026     2.33455532     1.29289279    -1.19221455    -0.52541824     0.36898558
Ti      1.62662604     3.39580321     8.72928792     1.19221455     0.52541824    -0.36898558
Ti      2.14821326     0.53062605     1.29293297     0.53296546    -2.03536135    -0.94374999
Ti      4.86222304     5.19973248     8.72924774    -0.53296546     2.03536135     0.94374999
Ti      0.89894639     0.53062385     6.30398291     1.19221455     0.52541824     0.36898558
Ti      6.11148991     5.19973462     3.71819768    -1.19221455    -0.52541824    -0.36898558
O       2.27067365     2.01775657     5.11424199     1.23531243     1.60704652    -0.69428836
O       4.73976257     3.71260175     4.90793860    -1.23531243    -1.60704652     0.69428836
O       1.53181667     2.01777969     0.10318399    -0.25297608    -0.22069766     0.79222197
O       5.47861968     3.71257872     9.91899632     0.25297608     0.22069766    -0.79222197
O       4.01208301     0.84742266     0.10315147    -1.23531243    -1.60704652    -0.69428836
O       2.99835327     4.88293565     9.91902884     1.23531243     1.60704652     0.69428836
O       4.75094011     0.84739957     5.11427451     0.25297608     0.22069766     0.79222197
O       2.25949612     4.88295880     4.90790608    -0.25297608    -0.22069766    -0.79222197
O       1.08706083     3.48552866     2.70724102     0.23324028     0.97387433     0.92992054
O       5.92337539     2.24482965     7.31493958    -0.23324028    -0.97387433    -0.92992054
O       3.54949201     2.24477622     2.30388118     0.96007650     0.82953692     0.06967127
O       3.46094427     3.48558215     7.71829925    -0.96007650    -0.82953692    -0.06967127
O       0.35938126     0.62034957     2.30384917     0.23324028     0.97387433    -0.92992054
O       6.65105502     5.11000879     7.71833126    -0.23324028    -0.97387433     0.92992054
O       2.73326470     0.62040300     7.31497153    -0.96007650    -0.82953692     0.06967127
O       4.27717158     5.10995531     2.70720900     0.96007650     0.82953692    -0.06967127
