# total energy = -4977.76952034 eV

CRYSTAL
PRIMVEC
        4.71055662     0.00000000     0.00000000
        0.00000000     2.79958973     0.00000000
        0.00000000    -0.00011176     6.38264967
PRIMCOORD
6 1
Ti      2.35527831     1.39973881     3.19132455     0.00000000     0.00000000     0.00000000
Ti      0.00000000     0.00000000     0.00000000     0.00000000     0.00000000     0.00000000
O       2.35527831     0.54557696     1.24388432     0.00000000     0.14941612     2.90194017
O       2.35527831     2.25390066     5.13876478     0.00000000    -0.14941612    -2.90194017
O       0.00000000     0.85411764     4.43521027     0.00000000    -0.14948862     2.90171674
O       0.00000000     1.94535998     1.94743883     0.00000000     0.14948862    -2.90171674
