# total energy = -19517.11665455 eV

CRYSTAL
PRIMVEC
        7.60600008     0.00000000     0.00000000
        0.00000000     7.60600008     0.00000000
       -1.89786986    -1.89786986     4.85670466
PRIMCOORD
23 1
Ti      3.81739599     6.53052802     1.17382701     0.13929779     2.34869332     1.29077423
Ti      3.74936602     2.79609200     1.24122202     0.48520463    -1.74137796     2.10339765
Ti      0.07547999     6.79601900     1.18525999    -0.44621949    -1.27967271     0.13295282
Ti     -0.01059302     2.92586499     1.20929898    -0.38214372    -0.36364540    -1.64066344
Ti      5.60583020     2.94791925     3.72631982    -1.70428002    -2.50621896    -1.35428693
Ti      5.79181722    -1.03250176     3.56902279    -0.75114627     3.22852927    -0.40197285
Ti      1.75839822     2.72076520     3.73668879     2.41871914     1.20455739    -1.39119693
Ti      1.90787523    -0.93492978     3.62333579     0.94941773    -0.81810090     0.32091133
O       3.94197199     4.65889201     0.93679799    -0.86068713     0.83074868    -0.81819012
O       3.80542801     0.88201798     0.82323300     0.13758338    -0.02594835    -0.94433055
O      -0.08842700     4.81841699     0.74493102     0.81108333     0.21492991     0.92141738
O      -0.07064701     0.88505303     0.68450998     0.56614838     1.78405855    -0.00589426
O       5.67717023     4.82799923     3.88481979     0.58948553    -1.10632759     0.34264385
O       5.62341021     1.05894723     4.10000379     1.10879739    -0.56215803     0.00177638
O       1.74711621     4.77711122     3.83158683    -0.09963568    -1.10760388     1.81107288
O       2.11316325     0.93359022     4.09941979    -1.42274489     0.22572289     0.74263540
O       3.66080223     2.90426223     3.35427282     1.31772505     0.43923740    -1.27303798
O       3.87191421    -0.63574778     3.08380979    -0.16398708    -1.68433288    -0.14603666
O       0.12535421    -0.67907877     3.06228784    -1.14674072     0.12491324     2.47172014
O       5.87247299     6.59711403     1.70868498    -2.01026043    -0.19495783    -1.63278610
O       5.84169498     2.63064901     1.66650801    -0.81889975     0.83633003     1.10416529
O       1.88459000     6.59034299     1.68133498     2.11947605    -0.40020187    -1.69341196
O       1.86196900     2.60418200     1.67794502    -0.83619351     0.55282544     0.05834041
