# total energy = -19932.36247115 eV

CRYSTAL
PRIMVEC
        6.04257485     0.00000000     0.00000000
        2.18403866     6.04891520     0.00000000
        0.00000000     0.00000000    10.98953235
PRIMCOORD
24 1
Ti      3.48440213     3.58458145     4.07703814     0.16968696    -2.44622944     0.80955455
Ti      4.74221160     2.46433359     6.91249433    -0.16968696     2.44622944    -0.80955455
Ti      6.10111082     2.46433565     1.41768422    -0.82368688    -0.86953970     0.24073891
Ti      2.12550294     3.58457958     9.57184838     0.82368688     0.86953970    -0.24073891
Ti      2.39238295     0.56012401     1.41772828     0.16968696    -2.44622944    -0.80955455
Ti      5.83423080     5.48879115     9.57180432    -0.16968696     2.44622944     0.80955455
Ti      1.03348364     0.56012178     6.91245028     0.82368688     0.86953970     0.24073891
Ti      7.19313012     5.48879344     4.07708220    -0.82368688    -0.86953970    -0.24073891
O       2.68155028     2.12992580     5.60787424     1.76554609     2.11705407    -0.83248675
O       5.54506344     3.91898924     5.38165823    -1.76554609    -2.11705407     0.83248675
O       1.87785566     2.12995020     0.11314342    -0.28109727    -0.52711080     1.31977988
O       6.34875814     3.91896489    10.87638875     0.28109727     0.52711080    -1.31977988
O       4.45304425     0.89453168     0.11310776    -1.76554609    -2.11705407    -0.83248675
O       3.77356948     5.15438337    10.87642441     1.76554609     2.11705407     0.83248675
O       5.25673893     0.89450727     5.60790991     0.28109727     0.52711080     1.31977988
O       2.96987474     5.15440779     5.38162257    -0.28109727    -0.52711080    -1.31977988
O       1.54799680     3.67929302     2.96854686     0.54681137     2.15819894     2.07356873
O       6.67861693     2.36962202     8.02098562    -0.54681137    -2.15819894    -2.07356873
O       4.09640243     2.36956567     2.52625431     0.90841016     1.72805990     0.95982068
O       4.13021130     3.67934937     8.46327798    -0.90841016    -1.72805990    -0.95982068
O       0.45597760     0.65483546     2.52621920     0.54681137     2.15819894    -2.07356873
O       7.77063613     5.39407958     8.46331310    -0.54681137    -2.15819894     2.07356873
O       3.03819210     0.65489181     8.02102061    -0.90841016    -1.72805990     0.95982068
O       5.18842163     5.39402323     2.96851181     0.90841016     1.72805990    -0.95982068
