# total energy = -19075.37719005 eV

CRYSTAL
PRIMVEC
        7.60600008     0.00000000     0.00000000
        0.00000000     7.60600008     0.00000000
       -1.89786986    -1.89786986     4.85670466
PRIMCOORD
22 1
Ti      3.74753899     6.81306401     1.16208499     0.39424873    -0.52349582     0.26971062
Ti      3.75795399     2.90946298     1.17695402     0.81867092     0.11293241    -0.33579237
Ti     -0.09118100     6.51823000     1.02824199    -0.28739622    -0.51899742     0.81488342
Ti      0.00535601     2.65983901     1.24976098    -1.51924794     0.93952181    -0.20490440
Ti      5.63661424     2.71151820     3.54600183     0.91605869     1.06250826     0.21301700
Ti     -1.42557377    -0.91361579     3.79840281    -1.30776485    -1.36422039    -0.90960367
Ti      1.96678023     2.96329523     3.68825579    -1.15648160    -0.85049682    -0.51461369
Ti      1.66028023    -0.82373980     3.76639981    -0.23651947    -0.47826136    -0.78363140
O       3.75493403     4.77313101     0.70250301     0.06982167     1.03471643     0.59579604
O       4.20185602     1.04618602     0.83676999    -1.91849336    -0.71392619     0.41986413
O      -0.17834400     4.67919199     0.64528202     0.07264783    -0.68862679     0.94822268
O       7.11907901     0.73558199     0.62390702     1.38836923     1.95880595     0.80349960
O       5.78825824     4.64143821     4.02064879     0.87414352     0.75264728    -0.86140035
O       5.64157221     0.86566122     4.02210080     0.54770817    -0.52479989     0.02089922
O       2.07840720     4.90112322     4.14619382    -0.49562068    -0.45327331    -0.62657602
O       2.12555721     0.94757320     3.98468580    -0.43245663     0.75469208     0.00759041
O       3.77246424     3.00907822     3.16241182     0.20362579    -0.36019600    -0.10235643
O       0.04282425     2.68518523     3.19026983    -0.04164546     0.18611066     0.00461513
O       5.57733798     6.61118998     2.03154099     0.14560908    -0.34032934    -0.55569068
O       5.70140501     2.89404498     1.57098898     0.18635414     0.10158972     0.77953126
O       1.68688102     6.62311700     1.81192301     1.32442638     0.37386579    -0.14130814
O       1.85908001     2.93408401     1.52281099     0.45394129    -0.46076654     0.15824734
