# total energy = -19959.55924888 eV

CRYSTAL
PRIMVEC
        7.60600008     0.00000000     0.00000000
        0.00000000     7.60600008     0.00000000
       -1.89786986    -1.89786986     4.85670466
PRIMCOORD
24 1
Ti      3.89449500     6.61646101     1.09132902    -0.58207535    -0.20989466     1.24107658
Ti      3.75157301     2.68957200     1.23021698     1.70472867     0.67089002     0.54597782
Ti     -0.06368701     6.75816399     1.17307801     0.26222794     0.71528502     0.01931568
Ti      0.07556201     2.97675300     1.22136898    -1.94912446    -1.42157452     1.12037302
Ti      5.66751523     2.92261124     3.71577179    -1.84007262     1.17749292    -1.96938836
Ti      5.72050323    -0.75591975     3.68406481    -1.39664355    -1.82714665    -0.42611448
Ti      1.79182423     2.69892124     3.65595883     2.42147923    -0.16033817     0.59078985
Ti      1.96822922    -0.99516375     3.60540780     1.23466348    -0.10260942    -1.05103265
O       4.00215399     4.62415301     0.67313701    -1.28972419     0.02116481     0.80519242
O       4.10811899     0.95234903     0.68813199    -0.90919101    -1.57455624     0.41858526
O      -0.14800601     4.86273898     0.81484502     1.00365183    -1.28125934     0.77160789
O      -0.24869299     1.03347698     0.74710202     1.04680421    -0.40043455     0.65948563
O       5.33814224     4.83690825     4.11280184     1.51011332    -0.56227733    -0.41072051
O       5.45537521     1.02008022     4.24962681     1.09475094     1.05660089    -1.55788932
O       2.26422621     4.68192022     4.11220080    -1.54969855     0.24471923    -1.48165120
O       2.01868923     0.80531623     4.08770582    -1.18945216     1.71075997    -0.79205639
O       3.76981523     2.81651120     3.13278779    -0.18871210    -0.06198109     0.72541337
O       3.84679121    -0.80867878     3.21219481    -1.03209956    -0.25297350    -0.68582351
O      -0.03978079     2.89583122     3.19650380     0.64281897     0.38469065     1.25514952
O      -0.00943978    -0.89511676     3.16668382     0.30383894    -0.03789319     0.81802994
O       5.64606598     6.67948602     1.69048303     1.28202296    -0.13767903     0.06426783
O       5.69073198     2.77215498     1.76264502     0.72939884     0.45215797    -0.14890112
O       1.93423799     6.65018500     1.47038302    -0.14360748    -0.05533736     0.45862944
O       1.90570597     2.29152001     1.69990302    -1.16609805     1.65219330    -0.97031695
