# total energy = -4990.16798847 eV

CRYSTAL
PRIMVEC
        4.05320499     0.00000000     0.00000000
       -0.00000818     3.66718588     0.00000000
       -2.02663109    -1.83362975     4.93881509
PRIMCOORD
6 1
Ti     -0.00017718     2.75052720     1.23470353    -0.00082070    -0.00155218     2.22577784
Ti      2.02674257    -0.91697096     3.70411097     0.00082070     0.00155218    -2.22577784
O       0.00004118     0.91678956     0.80449254     0.00001028     0.00065743    -0.30149487
O       2.02652405     0.91676657     4.13432207    -0.00001028    -0.00065743     0.30149487
O      -0.00002078    -0.91677674     3.27389998    -0.00127193    -0.00024965    -0.45417294
O       2.02658601     2.75033282     1.66491463     0.00127193     0.00024965     0.45417294
