# total energy = -19910.64255832 eV

CRYSTAL
PRIMVEC
        6.50876075     0.00000000     0.00000000
        3.25992877     6.11230026     0.00000000
        0.00000000     0.00000000    12.05484811
PRIMCOORD
24 1
Ti      4.29094352     3.62214348     4.47226269     0.09696456    -2.36853505     0.36755219
Ti      5.47774617     2.49015694     7.58258555    -0.09696456     2.36853505    -0.36755219
Ti      6.94148507     2.49015912     1.55511327    -0.79521859    -1.42645576     0.61106712
Ti      2.82720482     3.62214158    10.49973504     0.79521859     1.42645576    -0.61106712
Ti      2.66097938     0.56599355     1.55516162     0.09696456    -2.36853505    -0.36755219
Ti      7.10771043     5.54630710    10.49968675    -0.09696456     2.36853505     0.36755219
Ti      1.19724037     0.56599120     7.58253719     0.79521859     1.42645576     0.61106712
Ti      8.57144943     5.54630939     4.47231098    -0.79521859    -1.42645576    -0.61106712
O       3.20794027     2.15224488     6.15149674     1.77595777     1.99952787    -0.95783836
O       6.56074950     3.96005559     5.90335150    -1.77595777    -1.99952787     0.95783836
O       2.34224410     2.15226948     0.12411142     0.36323710    -1.30952452     1.84968650
O       7.42644575     3.96003103    11.93073643    -0.36323710     1.30952452    -1.84968650
O       4.93078524     0.90390543     0.12407230    -1.77595777    -1.99952787    -0.95783836
O       4.83790452     5.20839498    11.93077555     1.77595777     1.99952787     0.95783836
O       5.79648149     0.90388087     6.15153580    -0.36323710     1.30952452     1.84968650
O       3.97220822     5.20841961     5.90331237     0.36323710    -1.30952452    -1.84968650
O       2.21935178     3.71784747     3.25631522     0.66037318     3.24862322     3.01456455
O       7.54933799     2.39445300     8.79853296    -0.66037318    -3.24862322    -3.01456455
O       4.76789670     2.39439591     2.77114719     0.57621580     2.14043492     2.01058079
O       5.00079307     3.71790455     9.28370080    -0.57621580    -2.14043492    -2.01058079
O       0.58938752     0.66169730     2.77110871     0.66037318     3.24862322    -3.01456455
O       9.17930223     5.45060310     9.28373927    -0.66037318    -3.24862322     3.01456455
O       3.37082881     0.66175439     8.79857137    -0.57621580    -2.14043492     2.01058079
O       6.39786095     5.45054601     3.25627674     0.57621580     2.14043492    -2.01058079
