# total energy = -19913.29638238 eV

CRYSTAL
PRIMVEC
        7.38062301     0.00000000     0.00000000
        0.00003118     5.80602839     0.00000000
        0.00000000     0.00000000    11.75108881
PRIMCOORD
24 1
Ti      2.67513935     3.44064709     4.35957014     0.50505149    -0.81708712     1.19662888
Ti      4.70551490     2.36538149     7.39151874    -0.50505149     0.81708712    -1.19662888
Ti      6.36532339     2.36538351     1.51592735     0.50503555     0.81702515    -1.19697109
Ti      1.01533087     3.44064534    10.23516166    -0.50503555    -0.81702515     1.19697109
Ti      2.67512389     0.53763303     1.51597447     0.50505149    -0.81708712    -1.19662888
Ti      4.70553036     5.26839576    10.23511454    -0.50505149     0.81708712     1.19662888
Ti      1.01531541     0.53763081     7.39147163    -0.50503555    -0.81702515    -1.19697109
Ti      6.36533885     5.26839797     4.35961725     0.50503555     0.81702515     1.19697109
O       2.33602480     2.04440133     5.99649068     0.80515591     1.45550590    -1.23981520
O       5.04462952     3.76162725     5.75459820    -0.80515591    -1.45550590     1.23981520
O       1.35435188     2.04442476     0.12098407    -0.80497542     1.45595378    -1.24077936
O       6.02630250     3.76160390    11.63010448     0.80497542    -1.45595378     1.24077936
O       5.04461406     0.85861299     0.12094594    -0.80515591    -1.45550590    -1.23981520
O       2.33604026     4.94741560    11.63014261     0.80515591     1.45550590     1.23981520
O       6.02628704     0.85858964     5.99652880     0.80497542    -1.45595378    -1.24077936
O       1.35436721     4.94743902     5.75456008    -0.80497542     1.45595378     1.24077936
O       0.26817408     3.53155559     3.17426225    -1.40950499     0.30079218     0.02617178
O       7.11248023     2.27447300     8.57682662     1.40950499    -0.30079218    -0.02617178
O       3.95849354     2.27441885     2.70131955    -1.40944508    -0.30062943    -0.02631576
O       3.42216078     3.53160980     9.04976913     1.40944508     0.30062943     0.02631576
O       0.26815862     0.62854139     2.70128202    -1.40950499     0.30079218    -0.02617178
O       7.11249569     5.17748726     9.04980666     1.40950499    -0.30079218     0.02617178
O       3.42214532     0.62859554     8.57686409     1.40944508     0.30062943    -0.02631576
O       3.95850900     5.17743305     3.17422472    -1.40944508    -0.30062943     0.02631576
