# total energy = -19515.92718865 eV

CRYSTAL
PRIMVEC
        5.17600016     0.00000000     0.00000000
        0.00000000     5.50899976     0.00000000
        0.00000000     0.00000000     9.26300011
PRIMCOORD
23 1
Ti      1.89608701     3.19357899     3.45627797     0.60940721    -0.50193197     0.94652781
Ti      3.33842502     2.29157298     5.94715202     1.45847732     0.38277107    -3.23624284
Ti      4.19935200     2.30692102     1.54185201     1.65584993    -1.16003975    -1.33476968
Ti      0.80362900     3.39389602     7.82092500    -1.70021921    -0.02899177    -0.53671464
Ti      1.88857899     0.07898902     1.43614398    -0.37721234     0.70595294    -2.20861494
Ti      3.35090799     5.25895002     7.89361400    -0.71060098    -1.26558383     1.03076850
Ti      0.79412000     0.58601300     5.94144600    -1.60712802    -0.19366430    -2.90378288
Ti      4.64699500     4.86373600     3.45702501    -0.61970345     0.57347320     2.75300253
O       1.80706702     1.86300899     4.63732502    -0.58779322    -1.52753949     1.19783113
O       3.61435301     3.37798398     4.37583600     0.57218996     0.87380876    -0.24213862
O       4.80612802     2.97086098     9.13640498    -0.76659089    -0.64846820     0.91110494
O       3.48334502     0.58037801     0.24375301     0.47730645     0.23141171    -0.48477397
O       1.64309298     4.67544701     8.82471302     0.41438202     1.79050662     2.74849024
O       4.37138599     0.66297099     4.94998602    -0.42538969    -0.78882143    -1.43337512
O       1.23405802     4.59519500     4.45536600    -1.36626493     1.40291808     0.47178938
O       0.23636199     3.48169901     2.43326701     1.04203199    -0.82654544    -0.88165963
O       5.14638899     2.34406699     6.36631099     0.90260847    -0.57833413     1.88234543
O       2.55163301     1.73848300     2.09346701    -1.30061744     0.57470682     0.41011425
O       2.48335401     3.53223502     7.00205601     1.49015410     0.83633363    -0.38893709
O       0.01473499     0.69393902     2.29749399     0.93227284     0.91061540    -1.55383006
O       4.95019901     4.70323802     6.89823001     0.27138981     1.14702714     1.36702880
O       2.38721102     1.05064698     6.96991501    -0.69868983    -1.20667110     1.03575284
O       2.98347202     4.41107402     2.20024402     0.33414018    -0.70293369     0.45008386
