# total energy = -4990.29551046 eV

CRYSTAL
PRIMVEC
        3.02614893     0.00000000     0.00000000
        0.00000000     4.74152169     0.00000000
        0.00000000    -0.00006153     4.74152169
PRIMCOORD
6 1
Ti      1.51307441     2.37073002     2.37076079     0.00000000     0.00000000     0.00000000
Ti      0.00000000     0.00000000     0.00000000     0.00000000     0.00000000     0.00000000
O       1.51307441     0.92404074     0.92405273    -0.00000000    -0.20569321    -0.20569321
O       1.51307441     3.81741931     3.81746885     0.00000000     0.20569321     0.20569321
O       0.00000000     1.44666434     3.29481448     0.00000000     0.20480927    -0.20480927
O       0.00000000     3.29479570     1.44670710     0.00000000    -0.20480927     0.20480927
