# total energy = -19517.33629352 eV

CRYSTAL
PRIMVEC
        7.60600008     0.00000000     0.00000000
        0.00000000     7.60600008     0.00000000
       -1.89786986    -1.89786986     4.85670466
PRIMCOORD
23 1
Ti      3.70093800     6.63483500     1.28392900     2.56293057     0.46946176    -1.39517597
Ti      3.78773000     2.86624799     1.08324202    -0.39180130    -0.57303329     1.80040949
Ti      0.04859498     6.63870402     1.25552801    -2.47093930    -0.77439573     0.64512268
Ti      0.06051301     2.80246101     1.02070698     1.10191095     0.54953185     0.37714138
Ti      5.59856523     2.89866020     3.56022384    -0.83521546    -0.51242234     4.46676607
Ti      5.67143220    -1.08227675     3.68747583     1.21118441     0.54311643    -1.78877344
Ti      1.81363723     2.97955420     3.61775080     1.95267953     0.37076864     0.20166121
Ti      1.99867924    -0.87044678     3.66921080    -2.01707103    -0.53428135     0.94315915
O       3.77515098     4.79481198     0.74379900    -0.76153533    -0.25741226     0.63423045
O       4.13556000     0.99478798     0.86443501    -0.56486078     0.26422903    -0.94025637
O       0.14053699     4.61693403     0.97610199     0.45602285     1.84676906    -0.27551797
O       7.27315098     0.93072102     0.75992700     0.80182067    -0.68661515    -0.43794491
O       5.73948222     4.70816921     4.04982181     0.83351647     0.92065479     1.07485805
O       5.73458220     1.08518924     3.92131783     0.37667575    -2.94344319     1.13519055
O       1.75312121     4.85467024     4.07527883    -0.12505670    -0.66306924    -0.15812445
O       1.79017425     1.07033121     4.01851182    -0.00621513    -1.22526558     0.70143551
O       3.86186424     2.95168222     3.36447181    -2.45173675     0.33557434    -1.00009265
O       3.77660923    -1.11389377     3.24298679    -0.12284273     0.52163434    -0.19668072
O       0.05256725    -0.93590775     3.22465281    -0.59434928     0.15414900     0.10582947
O       5.66587102     6.39328802     1.67142000     0.34373862     0.63663597     0.34630664
O       5.97442899     2.84697800     1.94463098     0.58055839     0.35724746    -5.24611966
O       1.86034898     6.86152098     1.57558499     0.96951374    -0.03224242     0.48652695
O       1.98684901     2.44148201     1.76560101    -0.84892844     1.23240734    -1.47995118
