# total energy = -19959.40097611 eV

CRYSTAL
PRIMVEC
        7.60600008     0.00000000     0.00000000
        0.00000000     7.60600008     0.00000000
       -1.89786986    -1.89786986     4.85670466
PRIMCOORD
24 1
Ti      3.79420898     6.71708301     1.11796399     0.87547098    -0.68420089     1.06824568
Ti      3.91926700     2.77699298     1.25019898    -1.02885199     0.82388537    -0.92767416
Ti     -0.04963402     6.77458399     1.22241702    -0.88098111    -0.19877566    -0.48110732
Ti     -0.04057398     2.86760998     1.26502901     1.07174804     0.52725144     0.76073083
Ti      5.60384420     2.91034925     3.69872180     3.16663791    -1.00747712     2.05725816
Ti      5.58722724    -0.91704280     3.57836980    -0.77062315     1.34833713     0.20579143
Ti      2.11136320     2.68950723     3.64787983    -3.68611638    -0.52915020    -0.01091922
Ti      1.84864421    -1.00577275     3.60814084     0.98620998     0.96712930    -0.42895221
O       3.78521598     4.64382798     0.72314902     0.11639234     0.58774900     0.81154742
O       4.23386097     1.01816502     0.68407801    -1.39229067    -2.58300627     0.63601094
O      -0.21058201     4.79329198     0.81218701     1.36251652     0.45095444     0.50918686
O      -0.09605398     1.13507202     0.68998702     0.14914924    -2.91083721     0.92301532
O       5.38128521     4.89598925     4.04276279     1.01620576    -1.40122166     0.83105670
O       5.50795024     0.98674121     4.01809482     0.49518411     0.79912256     0.53650741
O       1.94988423     4.73196425     4.05476781    -0.42929648     0.58941173    -0.35521603
O       2.24346621     0.84093224     4.09667579    -1.35468339     1.08510261    -0.07060869
O       3.87350021     2.75011522     3.31673780    -1.14197955     0.72656625    -1.08003008
O       3.72731124    -0.80330477     3.15297982     0.00312363    -0.85147229    -1.17061033
O       0.08485622     2.64558023     3.23002581     0.15854765     0.93137167     0.07652300
O      -0.19255675    -0.72517080     3.18821281     3.16773268    -0.43070339    -0.04365632
O       5.69030203     6.50841699     1.60464301    -1.10785251     0.51216805    -0.51871100
O       5.75272298     2.76879502     1.88272100    -0.49746262     0.74791773    -2.45094845
O       1.89907401     6.74605498     1.63175599    -0.95398581    -0.18015032    -0.71058247
O       1.99864802     2.57583498     1.65387899     0.67520408     0.68002798    -0.16685746
