# total energy = -19518.73528187 eV

CRYSTAL
PRIMVEC
        7.60600008     0.00000000     0.00000000
        0.00000000     7.60600008     0.00000000
       -1.89786986    -1.89786986     4.85670466
PRIMCOORD
23 1
Ti      3.76623900     6.70596102     1.22425099     0.92452122    -0.19706613    -0.58579393
Ti      3.75298602     2.87897301     1.33827402     0.43597313     0.24849053     1.09127686
Ti      0.03697600     6.64844401     1.10698801    -0.90153118    -0.03490839     0.31593187
Ti     -0.07341599     2.79530802     1.15576100     0.00571299     0.06902463    -0.02379788
Ti      5.78124521     2.80111420     3.66593080    -2.13773937    -0.68397129    -0.44152902
Ti      5.73036122    -1.00884679     3.51363481     0.22767538     0.81687834     0.56303426
Ti      1.85865122     2.85441722     3.71003080     2.11089653    -0.17198218    -0.12423575
Ti      1.89399121    -0.91433378     3.63990179    -0.09557000     0.17612037     0.55616042
O       4.00000802     4.78353400     0.91770501    -1.33184530     0.15217928    -0.35467173
O       3.69310998     1.04255898     0.79215501     0.02116224    -1.28732843    -0.22867451
O      -0.18130200     4.67349900     0.75615503     1.12203241     1.28977998     0.55170649
O       0.04417799     0.91893598     0.72312198     0.18634540    -0.47389383    -0.28003798
O       5.78338520     4.68966923     3.97543880     0.38627805     0.64393560     0.12342020
O       5.56068122     0.93361223     4.08634684     1.09780541    -0.79538700    -1.05590438
O       2.01519624     4.73485123     4.05224581    -0.83645447     1.00114629     0.26285914
O       1.97243623     0.99571521     4.12036484    -0.86247533    -0.42093962    -0.31321036
O       3.83941823     2.80103324     3.37392879    -0.88655475     0.38271553    -1.66867100
O       3.84711321    -0.88115077     3.12156781    -0.44106803    -0.31848190     0.71621628
O      -0.01490978    -0.97954778     3.15144283     0.73994551     0.12001734     0.44881116
O       5.78279099     6.83101402     1.52026300    -0.72767671    -0.36819265     0.56719842
O       5.66810902     2.80459497     1.66835299     1.32673446    -0.39734203     0.40226621
O       1.89355601     6.63727498     1.68897302     0.16601516    -0.10546772    -0.89437914
O       1.81023600     2.83440702     1.72180201    -0.53018301     0.35467379     0.37202437
