# total energy = -19073.03949779 eV

CRYSTAL
PRIMVEC
        7.60600008     0.00000000     0.00000000
        0.00000000     7.60600008     0.00000000
       -1.89786986    -1.89786986     4.85670466
PRIMCOORD
22 1
Ti      3.72233200     6.37093398     1.04280902     0.52053545     1.39036672     1.66306573
Ti      3.77302601     2.81075798     1.19347203    -0.72872315    -1.12857844     0.53700132
Ti      0.09352599     6.82601102     1.09862600    -1.75305078    -0.96788392     4.01038532
Ti     -0.08337600     3.02383798     1.25840901    -0.53976629     0.62963383    -1.51817862
Ti      5.78690624     2.90312624     3.63108681    -2.51935319    -0.13397818    -0.06919587
Ti      6.03915721    -0.90358878     3.74816580    -1.53602619     0.83449324    -1.85858329
Ti      1.99977321     2.69945724     3.52551981     0.12046523     0.23769523     1.73080173
Ti      1.93920623    -1.03704575     3.75987479    -0.75929024    -1.35443914     2.28006053
O       3.25485502     4.54571698     0.63389301     0.92864295     1.15352020    -0.08793202
O       3.64392200     0.79931298     1.25918399     0.37893267     0.04154596    -2.12030960
O       0.13536899     4.90629799     0.66129498    -0.77371979    -2.44685371     1.17504137
O      -0.20093199     1.08050099     0.71994501     0.19752867     0.86851126     0.74773210
O      -1.46702677     4.84590622     4.31319380     0.95323454     1.49056496    -5.05303308
O       5.65234224     1.11885825     3.67465979     0.54009307    -1.93933935     1.07247360
O       1.73720922     4.63845223     4.04904884     0.23742604     0.48230314     0.40144294
O       1.81840422     0.72925425     3.90033579     0.39117318     2.43127230     1.22037431
O       3.79545720     3.24102724     3.30108579    -0.02101338    -1.04131208    -0.33589778
O      -0.11565677     3.00798822     3.06909983     1.01388200    -0.23280962     0.68869029
O       5.50541802     6.22732401     1.90513102     0.34817275     0.95113832     0.20078832
O       5.53248301     3.07906302     1.44656602     1.42364246     0.00471643     0.08104352
O       1.69247400     6.61661500     2.03438500     0.88790330    -0.37847218    -2.63346033
O       1.75795799     2.94277601     1.77735001     0.68931070    -0.89209497    -2.13231049
