# total energy = -19072.32149531 eV

CRYSTAL
PRIMVEC
        5.93400000     0.00000000     0.00000000
        0.00000000     9.29699974     0.00000000
        0.00000000     0.00000000     4.64899994
PRIMCOORD
22 1
Ti      4.30782498     6.92332301     2.56839999     0.90982401     1.16366655    -1.10571052
Ti      4.43309102     2.43502102     1.94267800     3.25130873    -0.48453845     3.48986863
Ti      1.35563601     7.19172399     2.50409897     1.25767666     0.59271149     0.41767792
Ti      1.67055601     2.27396000     2.26916602     0.36557604    -0.43827298     0.36560741
Ti      3.08452201     4.43752500     4.33808799    -2.16034066     0.38136982     1.42090603
Ti      3.05689901     0.01649202     0.13643100    -1.83052997     0.33734789    -0.95744806
Ti      5.84354901     4.66087701     4.61165802     0.86213312    -0.94769741     0.04323260
Ti      5.89623903     9.16564202     0.16319599     0.81140806    -0.15590815     1.10773295
O       4.30813598     5.32279202     0.86217003    -0.08766179     0.61514489     0.99948279
O       4.47026498     1.01532599     0.81370199     1.40019759    -0.98515505     0.03529046
O       1.61964402     0.82164500     1.08400901    -1.52116752    -0.23344751    -0.46987339
O       4.44821401     8.52004102     3.74388401     0.90623218    -1.33170595     0.81466154
O       4.47241498     4.02915600     3.35361500     1.14516437    -1.56214475    -1.56134540
O       1.43307200     8.50075298     3.85023001     0.07692204    -0.17954637    -0.11469258
O       1.22669399     3.57649800     3.51371397     0.90764089     1.37108035     1.27268342
O       2.87548298     6.13941799     3.32201899    -1.35286973    -1.24420048     0.56766996
O       3.17430201     1.32069100     3.30986400    -0.56345001     1.94428744    -1.24830550
O       5.91703998     6.30975400     3.57152299     0.52581470    -0.83014267    -0.46122497
O       2.98798500     8.09493499     1.76681700     0.05573717    -1.61960636    -1.39775118
O       3.03827801     2.98728897     1.17702901    -3.13454693     2.89083377    -2.31618043
O       5.88962399     8.06857397     1.67659599    -0.57378379    -0.55571767    -1.38933699
O       0.17997800     2.94803699     1.17158600    -1.25128541     1.27164161     0.48705608
