# total energy = -4988.57657364 eV

CRYSTAL
PRIMVEC
        4.04354498     0.00000000     0.00000000
        0.99532516     3.91913050     0.00000000
       -2.51947189    -1.95959389     5.20189413
PRIMCOORD
6 1
Ti      0.74636256     2.93949796     1.30047345     0.00006376    -0.00006376     0.00000000
Ti      1.77303587    -0.97996120     3.90142035    -0.00006376     0.00006376    -0.00000000
O       0.24887369     0.97977704     0.84734599    -0.00061681    -0.00104850    -1.10664255
O       2.27052457     0.97975962     4.35454781     0.00061681     0.00104850     1.10664255
O      -0.24884480    -0.97975457     3.44829288    -0.00104850    -0.00061681    -1.10664255
O       2.76824305     2.93929118     1.75360091     0.00104850     0.00061681     1.10664255
