# total energy = -19928.57777317 eV

CRYSTAL
PRIMVEC
        6.02860626     0.00000000     0.00000000
        3.01944222     5.66139287     0.00000000
        0.00000000     0.00000000    11.16555604
PRIMCOORD
24 1
Ti      3.97439851     3.35493617     4.14234167     0.89521089    -3.09317092     0.62251341
Ti      5.07365014     2.30645684     7.02321448    -0.89521089     3.09317092    -0.62251341
Ti      6.42940830     2.30645885     1.44039180    -2.31532168    -1.04056980     0.83991518
Ti      2.61864053     3.35493442     9.72516442     2.31532168     1.04056980    -0.83991518
Ti      2.46467763     0.52423993     1.44043659     0.89521089    -3.09317092    -0.62251341
Ti      6.58337114     5.13715330     9.72511969    -0.89521089     3.09317092     0.62251341
Ti      1.10891936     0.52423775     7.02316970     2.31532168     1.04056980     0.83991518
Ti      7.93912939     5.13715542     4.14238640    -2.31532168    -1.04056980    -0.83991518
O       2.97128894     1.99347271     5.69769780     1.65200330     2.04967597    -1.13105390
O       6.07675978     3.66792034     5.46785835    -1.65200330    -2.04967597     1.13105390
O       2.16945560     1.99349550     0.11495566     0.71752934    -1.30086684     1.55116100
O       6.87859319     3.66789760    11.05060013    -0.71752934     1.30086684    -1.55116100
O       4.56703878     0.83722388     0.11491943    -1.65200330    -2.04967597    -1.13105390
O       4.48100992     4.82416912    11.05063637     1.65200330     2.04967597     1.13105390
O       5.36887220     0.83720113     5.69773398    -0.71752934     1.30086684     1.55116100
O       3.67917646     4.82419193     5.46782212     0.71752934    -1.30086684    -1.55116100
O       2.05562911     3.44358003     3.01609524     0.68366558     2.76936915     2.59224270
O       6.99241961     2.21781302     8.14946085    -0.68366558    -2.76936915    -2.59224270
O       4.41616662     2.21776015     2.56671830     0.95766121     1.72995969     1.36828427
O       4.63188210     3.44363291     8.59883762    -0.95766121    -1.72995969    -1.36828427
O       0.54590811     0.61288357     2.56668266     0.68366558     2.76936915    -2.59224270
O       8.50214059     5.04850943     8.59887326    -0.68366558    -2.76936915     2.59224270
O       3.12216111     0.61293644     8.14949643    -0.95766121    -1.72995969     1.36828427
O       5.92588760     5.04845655     3.01605960     0.95766121     1.72995969    -1.36828427
