# total energy = -4935.78602969 eV

CRYSTAL
PRIMVEC
        5.40427350     0.00000000     0.00000000
       -0.00000706     2.31611737     0.00000000
       -2.70216775    -1.15814247     5.86484255
PRIMCOORD
6 1
Ti     -0.00023092     1.73715995     1.46621058    -0.02995336    -0.02889355    55.24439855
Ti      2.70232935    -0.57918500     4.39863186     0.02995336     0.02889355   -55.24439855
O       0.00005742     0.57901515     0.95533492     0.02918949     0.02571130   -48.49349572
O       2.70204084     0.57895975     4.90950758    -0.02918949    -0.02571130    48.49349572
O      -0.00002259    -0.57905707     3.88775620    -0.00148841     0.00098268    -1.08337791
O       2.70212080     1.73703191     1.97708630     0.00148841    -0.00098268     1.08337791
