# total energy = -19912.75281883 eV

CRYSTAL
PRIMVEC
        7.93442882     0.00000000     0.00000000
        0.00002598     3.61912775     0.00000000
        0.00000000     0.00000000    12.07558052
PRIMCOORD
24 1
Ti      2.87586409     2.14469177     4.47995425    -0.04175910    -0.02253161     2.34513723
Ti      5.05859036     1.47443604     7.59562645     0.04175910     0.02253161    -2.34513723
Ti      6.84294270     1.47443727     1.55778780    -0.04195142     0.02282806    -2.34574864
Ti      1.09151176     2.14469065    10.51779301     0.04195142    -0.02282806     2.34574864
Ti      2.87585128     0.33512795     1.55783624    -0.04175910    -0.02253161    -2.34513723
Ti      5.05860318     3.28399992    10.51774457     0.04175910     0.02253161     2.34513723
Ti      1.09149894     0.33512660     7.59557800     0.04195142    -0.02282806    -2.34574864
Ti      6.84295552     3.28400127     4.48000269    -0.04195142     0.02282806     2.34574864
O       2.51130588     1.27435639     6.16207635     2.70311951     0.49928682    -1.25266352
O       5.42314858     2.34477136     5.91350434    -2.70311951    -0.49928682     1.25266352
O       1.45597304     1.27437099     0.12432486    -2.70395898     0.49922409    -1.25383235
O       6.47848148     2.34475682    11.95125549     2.70395898    -0.49922409     1.25383235
O       5.42313582     0.53520748     0.12428569    -2.70311951    -0.49928682    -1.25266352
O       2.51131864     3.08392033    11.95129466     2.70311951     0.49928682     1.25266352
O       6.47846872     0.53519288     6.16211552     2.70395898    -0.49922409    -1.25383235
O       1.45598568     3.08393493     5.91346517    -2.70395898     0.49922409     1.25383235
O       0.28829183     2.20135864     3.26191559    -1.34092233     0.33572732     0.24643236
O       7.64616262     1.41776911     8.81366511     1.34092233    -0.33572732    -0.24643236
O       4.25551634     1.41773539     2.77591315    -1.33911870    -0.33552600    -0.24691984
O       3.67893812     2.20139242     9.29966737     1.33911870     0.33552600     0.24691984
O       0.28827907     0.39179477     2.77587462    -1.34092233     0.33572732    -0.24643236
O       7.64617538     3.22733305     9.29970590     1.34092233    -0.33572732     0.24643236
O       3.67892536     0.39182848     8.81370358     1.33911870     0.33552600    -0.24691984
O       4.25552910     3.22729933     3.26187705    -1.33911870    -0.33552600     0.24691984
