# total energy = -19887.56479221 eV

CRYSTAL
PRIMVEC
        9.09379742     0.00000000     0.00000000
        0.00002978     4.14795007     0.00000000
        0.00000000     0.00000000    13.84004891
PRIMCOORD
24 1
Ti      3.29608168     2.45807139     5.13455944     0.27255041    -0.34894639     2.76484092
Ti      5.79774512     1.68987875     8.70548967    -0.27255041     0.34894639    -2.76484092
Ti      7.84282474     1.68988016     1.78540976     0.27244191     0.34890860    -2.76569710
Ti      1.25100206     2.45807011    12.05463948    -0.27244191    -0.34890860     2.76569710
Ti      3.29606699     0.38409642     1.78546528     0.27255041    -0.34894639    -2.76484092
Ti      5.79775981     3.76385379    12.05458396    -0.27255041     0.34894639     2.76484092
Ti      1.25098737     0.38409487     8.70543415    -0.27244191    -0.34890860    -2.76569710
Ti      7.84283943     3.76385533     5.13461496     0.27244191     0.34890860     2.76569710
O       2.87825468     1.46056372     7.06247107     0.97611016     1.08431919    -2.48364698
O       6.21557212     2.68738635     6.77757804    -0.97611016    -1.08431919     2.48364698
O       1.66871796     1.46058045     0.14249105    -0.97526067     1.08436830    -2.48414629
O       7.42510891     2.68736969    13.69755766     0.97526067    -1.08436830     2.48414629
O       6.21555749     0.61341132     0.14244615    -0.97611016    -1.08431919    -2.48364698
O       2.87826930     3.53453882    13.69760256     0.97611016     1.08431919     2.48364698
O       7.42509428     0.61339458     7.06251597     0.97526067    -1.08436830    -2.48414629
O       1.66873245     3.53455556     6.77753314    -0.97526067     1.08436830     2.48414629
O       0.33041667     2.52301835     3.73854252    -2.14864034     0.64902947    -0.01106809
O       8.76341013     1.62493172    10.10150659     2.14864034    -0.64902947     0.01106809
O       4.87732694     1.62489308     3.18152603    -2.15027505    -0.64909349     0.01099636
O       4.21649985     2.52305706    10.65852288     2.15027505     0.64909349    -0.01099636
O       0.33040204     0.44904332     3.18148187    -2.14864034     0.64902947     0.01106809
O       8.76342475     3.69890683    10.65856704     2.14864034    -0.64902947    -0.01106809
O       4.21648523     0.44908196    10.10155068     2.15027505     0.64909349     0.01099636
O       4.87734157     3.69886818     3.73849836    -2.15027505    -0.64909349    -0.01099636
