# total energy = -19073.61675599 eV

CRYSTAL
PRIMVEC
        5.17600016     0.00000000     0.00000000
        0.00000000     5.50899976     0.00000000
        0.00000000     0.00000000     9.26300011
PRIMCOORD
22 1
Ti      1.92297298     3.54990102     3.34528098     1.29336230    -0.93975270    -0.83360003
Ti      3.48501399     2.13924100     5.94988903     0.37648626     0.66873775    -1.95245636
Ti      4.51079001     2.24048102     1.28061699    -1.31850564     0.43301327    -0.84610280
Ti      0.58743898     3.10632502     8.06993798     0.70073720     1.79199195    -0.11089146
Ti      1.84008101     0.57729603     1.34555402     0.83167531     0.43893504    -1.99022716
Ti      3.13970202     5.01991499     8.06999503     0.78275799     0.96372387     1.99406813
Ti      0.71620902     0.09867103     5.94925502    -0.59988616     0.72124561     0.18173747
Ti      4.49816501     4.98408800     3.34854802    -0.29998717    -0.95784427     0.81388275
O       3.63859203     3.29859898     4.22440500    -0.19206148     0.11303165     2.09309704
O       0.87368900     1.89995001     0.12595699     0.16549709    -0.43241677     0.19922843
O       4.25153502     3.68617199     9.01568801     0.10608504    -0.40043121    -0.30182217
O       3.43662502     0.83656197     0.30080202     0.43653800     0.16983197    -1.90446027
O       1.72286100     4.69156098     9.19715802    -1.15517548    -0.02232155     0.39065819
O       4.32808998     0.77253502     4.76950101    -0.28822977    -0.31111902     0.89088860
O       1.18520099     5.03789199     4.22100599    -0.58827839    -0.74135936     1.61990641
O       0.40956700     3.64557902     2.20509001    -1.30938928    -0.82558590     0.81387607
O       4.98789702     1.72084399     6.97857600     0.01502348    -0.45685281    -0.22962068
O       2.73844401     2.19677198     2.06453498    -0.52678118    -0.04448601     0.96951374
O       2.13871600     3.97881500     6.99288199    -1.71043138    -3.17298339    -2.23644432
O       0.02027199     0.69076300     2.13211002     0.78653392     0.94103645     0.14415204
O       2.23737501     0.84369100     6.70425702     1.53004349     1.66186657     0.24714970
O       2.81945401     4.86960002     2.40136498     0.96398587     0.40173862     0.04746670
