# total energy = -19960.26357573 eV

CRYSTAL
PRIMVEC
        5.93400000     0.00000000     0.00000000
        0.00000000     9.29699974     0.00000000
        0.00000000     0.00000000     4.64899994
PRIMCOORD
24 1
Ti      4.41338499     6.86803098     2.16295899     0.85473939     1.87081763     0.41160523
Ti      4.47338798     2.44538798     2.29115900    -0.26288254    -1.85921938    -0.24131252
Ti      1.50331002     6.94668698     2.31113698    -0.76047423     1.61452097     0.44974370
Ti      1.47193197     2.30912600     2.44596398     0.25628200    -1.45198348     0.03415609
Ti      3.00394102     4.66634002     0.01389598    -2.37914677    -0.43816833     0.23290912
Ti      2.98047799     0.08838398     0.09042999     0.21587761    -0.08648526    -1.37135006
Ti      5.89792102     4.62239799     4.53837200     2.33882491    -0.28810816    -0.06412591
Ti      5.91652900     0.00751199     0.11639799     0.18464461    -0.68831234    -1.26235093
O       4.55512200     5.55975802     0.76706401    -0.97415175     0.02581183     0.72006573
O       4.50649098     0.81033002     1.07528801    -0.68437392     1.35034285     0.47737253
O       1.49350399     5.58059099     0.89207801     0.45526335    -0.82048020    -0.94227238
O       1.50122601     0.73504699     1.05822300    -0.57014131     1.26265380     0.40095957
O       4.44157802     8.57168797     3.83245098     0.07370764    -1.40668217    -1.38699266
O       4.45164900     3.74031000     3.70931900    -0.12404703     0.47857761     0.44779506
O       1.42827602     8.41160101     3.68676298     0.44960049    -0.43035835    -0.28330919
O       1.57228801     3.70202101     3.76020998    -0.61730847     1.29436117     0.54116934
O       3.04021998     5.96130100     3.14178000    -0.21853845     0.46178907     0.01379629
O       2.92691901     1.51370200     3.34734499     0.26056238    -0.15307454    -0.10475244
O       5.93233299     6.05680199     3.11678500    -0.22761496    -0.79455216     0.82930295
O       5.88163400     1.53327801     3.28333502    -0.25099658    -0.06931774     0.35454883
O       2.97527602     7.90408298     1.30599098     0.36328236    -2.06554637     1.67670930
O       2.80684398     3.18208701     1.44751399     1.90718178     1.12816423    -1.15066885
O       5.92625401     7.72599600     1.29910099    -0.03354442     0.33418569     0.62694728
O       5.91457301     3.20143600     1.37255201    -0.25674609     0.73106363    -0.40994661
