# total energy = -4987.01776746 eV

CRYSTAL
PRIMVEC
        3.76414371     0.00000000     0.00000000
        0.00000000     3.53870907     0.00000000
        0.00000000    -0.00006969     5.03283061
PRIMCOORD
6 1
Ti      1.88207170     1.76931979     2.51641541     0.00000000     0.00000000     0.00000000
Ti      0.00000000     0.00000000     0.00000000     0.00000000     0.00000000     0.00000000
O       1.88207170     0.68962874     0.98082462    -0.00000000    -0.34311179     0.39222605
O       1.88207170     2.84901085     4.05200626    -0.00000000     0.34311179    -0.39222605
O       0.00000000     1.07966323     3.49724101     0.00000000     0.34287345     0.39233018
O       0.00000000     2.45897636     1.53558982     0.00000000    -0.34287345    -0.39233018
