# total energy = -19518.01699475 eV

CRYSTAL
PRIMVEC
        5.93400000     0.00000000     0.00000000
        0.00000000     9.29699974     0.00000000
        0.00000000     0.00000000     4.64899994
PRIMCOORD
23 1
Ti      4.47143499     6.97797099     2.29291100    -0.11090123     1.39256861    -0.52229049
Ti      4.49761498     2.40953003     2.33578298     0.15900068    -1.53629436     0.17037756
Ti      1.40214699     7.00350400     2.27280602     0.12414705     0.90998522    -0.69242662
Ti      1.52652502     2.30451099     2.35403002    -0.11940902    -0.51571052     0.28301506
Ti      2.98270598     4.62512500     0.22543898     0.02345593    -0.13535526     0.06466867
Ti      2.92834598     0.01504599     4.54960501     1.17990513    -0.40232252     0.50740123
Ti      5.92924900     4.54144001     4.62430801     0.20157379     0.04778577    -0.23203418
Ti      0.00708801     0.08059798     4.60757801    -1.12394068    -0.01208342     0.29575745
O       4.49131698     5.53039598     0.92610501    -0.54114491     0.10628893    -0.30857337
O       4.40582998     0.96909198     0.93388201     0.57004052    -0.53424150    -0.45311031
O       1.44057002     5.47917798     0.89812100     0.05427061     0.65140774    -0.03029275
O       1.55336002     0.92025998     0.88828598    -0.49986609    -0.05831161     0.21769744
O       4.51052802     8.43563301     3.67002198    -0.39426210    -0.36936019     0.05172522
O       4.37607699     3.66982899     3.83035200     0.17626539     0.64080939    -0.22809267
O       1.49335497     8.44614099     3.57625902    -0.10559679    -0.43919575     0.56365801
O       1.39674102     3.54117499     3.84278999     0.69446139     1.22865764    -0.06601413
O       2.97537698     1.40354698     3.25965899    -0.09241988     0.35143651    -0.54814680
O       5.89789800     6.14546299     3.15864900     0.45213457    -1.74686881     1.31728437
O       0.03644899     1.41725098     3.23939002    -0.13269648     0.00557698    -0.18401546
O       2.96344800     7.69138701     1.25868598    -0.24429911     0.15390012     0.82647550
O       3.04329201     3.32426698     1.51631502    -0.95241693    -0.38324878     0.20202322
O       5.89756498     7.83528602     1.38425699     0.30722869     0.70171885    -0.92756129
O       5.91703400     3.30274201     1.50082198     0.37447026    -0.05714382    -0.30752539
