# total energy = -19518.52913976 eV

CRYSTAL
PRIMVEC
        7.60600008     0.00000000     0.00000000
        0.00000000     7.60600008     0.00000000
       -1.89786986    -1.89786986     4.85670466
PRIMCOORD
23 1
Ti      3.83192900     6.59776698     1.24344800    -0.40289433     0.28345214     0.40341369
Ti      3.84087400     2.83791901     1.14746700     0.26187107     0.17854878     0.34217565
Ti     -0.07730502     6.68205502     1.27657799     0.51091387    -0.86798418    -0.89346382
Ti      0.04565699     2.85244699     1.05637702    -0.56675465     0.82662900     1.36152227
Ti      5.62697724     2.88371523     3.63991682    -1.11384370    -0.05615189     0.04922585
Ti      5.77176923    -1.00242078     3.69620281    -2.66640080     0.24461716    -0.11168645
Ti      1.88557925     2.86386822     3.55473579     1.02714684    -0.55542379     0.71556476
Ti      1.85561220    -0.99851276     3.66999780     1.81554480     0.72990612    -0.24486193
O       3.83961599     4.75492599     0.66276302    -0.45852711    -0.02636256     1.83787433
O       4.11348701     0.98787502     0.71054302    -0.57456541    -0.87670871     0.51747507
O       0.17421700     4.72819201     0.76868901     0.16388038     1.73817745     0.69357128
O      -0.12219200     0.95425602     0.75139698     0.27610701    -1.14500137     0.88291535
O       5.46108620     4.73220322     4.04410881     0.94928892     0.65644222     0.73091991
O       5.70368624     1.02371720     4.09493480     0.54453723    -1.13242918    -1.75373778
O       1.67928225     4.69219520     4.04895681    -0.05889217     1.30529017    -0.39756752
O       1.88300321     0.99634424     4.06441583    -1.06922733    -0.74901636     0.05898653
O       3.74614021     2.74562621     3.39722984     0.66502585     0.43883245    -1.56751913
O       3.81995922    -0.71137478     3.28043581     0.10224278    -0.99922568    -0.79481210
O      -0.04614479    -0.84628476     3.30524581     1.04376954    -0.13801841    -0.57252035
O       5.70120398     6.45598002     1.71024197     0.67987886     0.22930443    -0.48243915
O       5.76577799     2.99366302     1.71677499     0.43810637    -0.13710053    -0.11254700
O       1.99437100     6.72881799     1.71042899    -1.51664495    -0.16559299    -0.38481098
O       1.89861098     2.71610400     1.61327998    -0.05056256     0.21781546    -0.27767847
