# total energy = -19958.83488083 eV

CRYSTAL
PRIMVEC
        7.60600008     0.00000000     0.00000000
        0.00000000     7.60600008     0.00000000
       -1.89786986    -1.89786986     4.85670466
PRIMCOORD
24 1
Ti      3.70597000     6.57531700     1.35782898    -0.10405027     2.58335928     0.16375439
Ti      3.54151398     3.06750299     1.16613499     3.16623141    -2.55816349     0.50269096
Ti      0.00080800     6.56190702     1.18040399     0.63159841     2.33754887    -0.03121886
Ti      0.12578898     3.08631799     1.14040401    -1.74349655    -1.46721290    -1.12466419
Ti      5.63420024     2.81354024     3.46900680    -0.84820185     1.60899541    -0.59206743
Ti      6.01005621    -0.98187579     3.71819679    -1.18471978    -1.66809301     0.02384750
Ti      1.72879525     2.85679524     3.59722079     1.36642639     0.91609725     0.99286759
Ti      2.01267423    -1.03456677     3.81755781     0.43448703    -0.43126698    -0.85359165
O       3.54249502     4.79478097     0.76998301    -0.15970670    -0.69463443    -0.52848454
O       3.67280598     0.76708799     0.79323903     1.32514115     1.72241170     1.02619347
O       0.47893298     4.86445102     0.61524798    -0.07344307    -2.61757425     0.13171946
O       0.12753399     0.89909898     0.73967697    -0.19374529    -0.07710767     0.28988530
O       5.45183020     4.69716523     4.04227383     0.76907175    -0.21991965    -0.12110517
O       5.68341722     0.88356223     4.07110579     0.17082339     1.92126089    -0.85210916
O       1.99239420     4.70504024     4.14112679    -0.16363921    -2.14949395    -1.03284749
O       1.58951320     0.80997320     4.18574082     0.43156960     2.66093258    -0.92017605
O       3.64143122     3.08979722     3.11296582     1.28373403    -1.52814447     0.60669521
O       3.82889120    -0.95850775     3.20578383     0.65784733     0.02488366     1.12363909
O      -0.06034679     3.06145221     3.02669580     1.45821430    -0.05787273     1.75702596
O       0.19333221     6.26343025     3.25744079    -1.82625602     0.64842783    -0.10532657
O       5.86474102     6.41164602     1.71301301    -0.64381090     0.34411040    -0.06534153
O       5.82790499     2.90958501     1.58749000    -1.72640282     0.05152107    -0.52722752
O       1.93783000     6.89610700     1.72638199    -0.63330048    -1.21731881    -0.15311876
O       1.89967801     2.62982001     1.62086399    -2.39437233    -0.13274662     0.28896048
