# total energy = -19958.99089724 eV

CRYSTAL
PRIMVEC
        5.93400000     0.00000000     0.00000000
        0.00000000     9.29699974     0.00000000
        0.00000000     0.00000000     4.64899994
PRIMCOORD
24 1
Ti      4.37442098     6.73955801     2.26556899     1.12610195     0.95216007     1.34346206
Ti      4.50061298     2.39785198     2.30440298    -0.72268235    -3.32988091     1.28026715
Ti      1.49349002     7.00932601     2.22722301    -0.92381905    -0.17452295     0.83198358
Ti      1.50714301     2.55268501     2.30500201    -0.50079529    -3.12428951     1.35602756
Ti      2.93677599     4.64525501     4.63607701    -0.55825869    -1.70403808     0.19951562
Ti      2.92802499     9.13385800     4.54408801     0.11693484     2.67471421    -0.64240142
Ti      5.91462000     4.68375901     0.08099502     0.95771031    -1.18251017    -1.12749292
Ti      0.03197601     9.16143898     0.21117300    -0.68216354     3.21585835    -0.99384873
O       4.47454301     5.61494703     0.82851800    -0.58418751     1.32611482     0.81705266
O       4.54591802     1.10003499     0.93901498    -0.03188041    -1.29581668    -0.72553293
O       1.45435800     5.58114302     0.88436499     0.19267391     0.42372413    -0.09911838
O       1.56315398     0.83122099     0.76181198     0.21660344     0.46735988     0.88828433
O       4.58290200     8.47341701     3.81819299    -1.19356901    -1.22841775    -1.02909085
O       4.41750601     3.73350499     3.98577199     0.48532830    -0.28680949    -1.32990129
O       1.45457999     8.44013599     3.65373999     0.49568445    -1.20005565    -0.09657890
O       1.50385200     3.64029799     3.87200401    -0.61917946     1.30884163     0.62524650
O       2.85710603     5.93724698     3.26895299     1.47144134     1.83072666    -1.66675964
O       2.83865700     1.47725402     3.13215802     0.94438737    -0.23604150     0.14061805
O       0.17932198     6.02077502     3.06078402    -2.39613662    -0.75924113     1.56955930
O       0.13452300     1.50443002     3.10395700    -1.31274071     0.36744395     0.01806098
O       3.00472002     7.82380399     1.39747499     1.04312316    -0.27810862     0.19316422
O       2.93234799     3.41049599     1.52592398     0.98356457     0.96759390    -0.70827002
O       5.91324699     7.80577899     1.43120300    -0.50732666    -0.06332295     0.25035895
O       5.74858301     3.46612401     1.56591502     1.99918566     1.32851804    -1.09460618
