# total energy = -19517.94331078 eV

CRYSTAL
PRIMVEC
        5.93400000     0.00000000     0.00000000
        0.00000000     9.29699974     0.00000000
        0.00000000     0.00000000     4.64899994
PRIMCOORD
23 1
Ti      4.49523898     7.01709899     2.28178299     0.94664454    -0.63292150     0.34967093
Ti      4.52942700     2.27080298     2.39515799     0.11633321     0.45930898    -0.78669435
Ti      1.46346101     7.10818802     2.25007299    -0.78196789    -0.67519508     0.09336245
Ti      1.52277099     2.21757003     2.27058798    -0.51019036     1.31922067     0.27878199
Ti      3.00588998     4.45648701     0.08370102     0.01812706    -0.12999708     0.46281288
Ti      2.90796298     9.24396602     4.49355000     0.89218007    -0.54055664     0.27134507
Ti      0.05127098     4.64440499     0.04358002    -0.00346791     0.52063239    -0.21347106
Ti      5.89441802     0.13409399     0.07227699    -1.42038770    -0.64053840    -0.51377191
O       4.42813099     5.65514502     0.84172098    -0.96932219    -0.79846898     0.05252483
O       4.43920799     0.96490100     0.97792501    -0.16012091    -0.83498612    -0.87523135
O       1.38856698     5.59576398     0.96260898     1.17855839    -0.26175717    -0.13160736
O       1.41078200     0.93391799     0.88210302     1.26239824     0.18035395     0.65903235
O       4.50906098     8.38460598     3.79627298    -0.85268585     0.22398096    -0.54065383
O       4.44086998     3.61592699     3.68000099    -1.01160143     2.05245945     1.98551073
O       1.39124700     8.55521701     3.60885999     0.40587732    -0.88728674     0.41405498
O       1.46127699     3.72567597     3.78269202     0.83755259     0.29087235    -0.13404168
O       2.93907902     1.38606799     3.22837398    -0.01684819    -0.19664370     0.18221826
O       5.84079802     6.08208698     3.29360799     0.12253805    -0.01005507    -0.49954907
O       0.03824898     1.49390902     3.27794402     0.23836681    -0.82629167     0.36763344
O       2.92731102     7.83949902     1.36961000    -0.02215418     0.14442277     0.38495959
O       3.00567900     3.20099498     1.43140001    -0.55241200     0.39249678    -0.23044266
O       5.91793201     7.84093499     1.45472800    -0.18310401     1.38296785    -1.00975743
O       5.88567400     3.32202401     1.51639398     0.46568686    -0.53201775    -0.56668677
