# total energy = -39038.23808579 eV

CRYSTAL
PRIMVEC
        7.60600008     0.00000000     0.00000000
        0.00000000     7.60600008     0.00000000
       -3.79573973    -3.79573973     9.71340985
PRIMCOORD
46 1
Ti      1.89209146     4.83109142     6.16098360     0.08607465     0.48570548     0.11792832
Ti      3.79254800     6.89856302     1.25995902    -0.90271543    -0.97745742     1.00391280
Ti      1.99227244     0.85522045     6.05321861    -0.59905183     0.38735920    -0.01819545
Ti      3.78574701     2.81902400     1.26816598    -0.81785074    -0.28485957     0.03479809
Ti     -1.89219756     4.63486345     6.10948761     0.42236093     0.50351372    -0.22176776
Ti     -0.05757401     6.64912998     1.22154800     0.78156551     0.20089348    -0.99262411
Ti     -1.89758157     0.81838045     6.00707462     0.63459118    -0.34212063    -0.20824401
Ti     -0.15710701     2.86629699     1.08936900     1.26784409    -0.11784836    -0.16309542
Ti      3.85998243     1.08356847     8.42896263     0.26247939    -0.28865246     0.65087295
Ti      5.70015001     2.87621700     3.70528302     0.12270414    -1.58356899    -0.34575000
Ti      3.92473743    -2.81167156     8.43254362    -0.61113139     0.28695964     1.32633800
Ti      5.65972701    -1.02221201     3.54718200    -1.38017049     0.74549421     1.93178982
Ti      0.06275846     1.04388944     8.38833562    -0.43777701    -1.14752850    -1.23286165
Ti      1.80994098     2.78470701     3.53487403     0.19404997    -0.16476406    -0.37154434
Ti      0.07818044    -2.74505454     8.53813861     0.57966262     0.53244507     0.85412927
Ti      1.76141701    -1.03706602     3.66921303     1.55760804     0.74624934     0.50022013
O       1.96148147    -0.90873656     5.73282163     0.27745787    -2.08143168    -0.83211034
O       3.92887797     1.01596698     0.85357698    -0.02980964     0.86662535    -0.76584193
O      -1.73235058     2.70526343     5.68338563    -0.35505662     2.02060938    -0.28132687
O      -0.01693701     4.84976598     0.77692200     0.02713595    -0.71265735    -0.21010934
O      -2.02539354    -1.05385353     5.59547060     0.19074224    -0.26614527     0.65542972
O      -0.10241099     0.97840402     0.72722501    -0.29005037    -0.15304009     0.76826159
O       3.93769745     2.91348743     8.87753660    -0.35981754    -0.33939371     0.52559487
O       5.67169102     4.68051102     4.09780802    -0.29853964     0.24657094     0.19441481
O       3.83779144    -0.91363855     8.81836861    -0.15375177     0.00001748     0.75400045
O       5.73443102     0.91355499     4.06094098     0.10915725    -0.66927383    -0.20530498
O       0.04034844     2.74673944     9.10523565     0.01060683     0.23165185    -0.75303346
O       1.83723102     4.60536198     4.20713699     0.23049177     0.36033947    -0.35971572
O       0.03814246    -0.74218057     8.94643860     0.01315145    -0.75735420     0.17518166
O       1.73648202     0.97911502     4.06349903     0.09877179    -0.20755289     0.35779253
O       1.99435946     0.90777246     8.01983860    -1.01837706     0.79134445    -0.01763906
O       3.78701402     2.60802298     3.19413600     0.38703473     1.06070206     0.24160151
O       1.96167647    -2.91063654     8.18558565    -1.04355974     0.18116257    -0.49626140
O       3.75440802    -0.82661498     3.23081597    -0.05835224    -0.65359215     0.69170388
O      -1.94454256     0.94977643     8.19125562     1.65919828     0.05127322    -1.24444704
O      -0.03023100     2.87487601     3.24881599    -1.40781191     0.01866930    -0.74125112
O      -1.77456358    -2.84619556     8.24974664    -0.66468286    -0.02652248    -1.21619344
O      -0.07954301    -0.99817498     3.19230499     0.69791953    -0.09738288     0.05464316
O       3.77307343     4.51353644     6.55685962     1.19486716     0.00783775    -0.86882622
O       5.59325700     6.46165201     1.64748801     0.96738487     0.02144661    -0.70926350
O       3.85371247     1.04289543     6.38522664    -0.25368930     0.24210133     0.25286963
O       5.63374203     3.05809300     1.50658499     0.23427438     0.20316839     0.72793177
O       0.03570047     4.78316744     6.49083761    -0.32401080    -0.41757713     0.32268539
O       1.93614700     6.66621399     1.70452300    -1.30262650    -0.31347467    -0.39031700
O       0.04246743     0.81169144     6.41417062    -0.30052530     0.63969533     0.89659337
O       1.81439200     2.74312601     1.60733198     0.60222432     0.77036270    -0.39296961
