# total energy = -19075.05708744 eV

CRYSTAL
PRIMVEC
        7.60600008     0.00000000     0.00000000
        0.00000000     7.60600008     0.00000000
       -1.89786986    -1.89786986     4.85670466
PRIMCOORD
22 1
Ti      3.83330401     6.73740299     1.04293099     0.10321569    -0.72479271     0.91382054
Ti      3.86448700     2.86591498     1.26072299     0.69277603     1.94279492     1.05294041
Ti     -0.01286599     6.63405398     1.10583101     0.48799659    -1.94698967     1.37229777
Ti      0.08276200     2.61588899     1.14949300    -0.09768062     2.06644626    -1.26134614
Ti      5.84752424     2.74200722     3.54552181    -1.54652890    -0.64110018     1.94217657
Ti      6.02705423    -1.18748375     3.64836180    -0.79496097     2.01047975    -0.34891323
Ti      1.95320424     2.94872524     3.66330079     1.05915220    -0.41324148    -0.45739711
Ti      1.21515623    -0.62536178     3.88207479     1.90713782    -1.39913315    -1.94306128
O       3.73090298     4.85822599     0.77899400    -0.07714341     0.82618908    -0.00938839
O       3.69155600     1.10039499     0.98846500    -0.01248760    -2.02870528    -0.73373964
O       0.08058999     4.65389801     0.70430100     0.32271522    -0.18618445    -0.26403697
O       7.19110702     0.83988902     0.65383299     0.77297391     0.12916301     0.86197705
O       5.59023223     4.63146920     4.10597582     0.76066912     0.23064115    -2.21078393
O       5.60806322     0.75568924     4.02369680     1.14669110     0.39009229    -0.90821450
O       2.04776620     4.93217121     4.09559680    -0.75600231     0.78857357    -0.25066157
O       2.12826523     1.06154422     4.11018881    -1.41990639    -0.86211718    -0.15505326
O       3.82738421     2.81136924     3.26101681     0.27070101     0.49215921    -0.48031902
O       0.07339821     2.83184220     3.11652581     0.91385422    -0.36959724     0.91686884
O       5.75781102     6.44586601     1.72983101    -1.18438477     0.53772946     0.46466433
O       5.82984601     2.94201903     1.59916698    -0.95058861    -0.28861004     0.28430498
O       1.75423100     6.81123798     1.92376002    -0.10259528    -0.01859474     0.67891778
O       2.01915703     2.99081203     1.53332601    -1.49560355    -0.53520232     0.53494649
