# total energy = -19517.26122476 eV

CRYSTAL
PRIMVEC
        7.60600008     0.00000000     0.00000000
        0.00000000     7.60600008     0.00000000
       -1.89786986    -1.89786986     4.85670466
PRIMCOORD
23 1
Ti      3.87310899     6.64348001     1.23212202    -1.23780331    -1.47498304     0.27327649
Ti      3.79588203     2.64348701     1.27670499    -0.03969862     2.54424945     1.41638912
Ti     -0.05277300     6.75731201     1.06463102     1.16015005    -0.42189222     0.12146744
Ti     -0.16615801     2.88862001     1.22021998     2.18285377     0.36883054    -1.30187883
Ti      5.68367921     2.87586425     3.66341181    -1.30598411    -0.18501511     0.19113331
Ti      5.78163723    -0.86027578     3.50374083    -0.06031450     0.25288840     1.62485013
Ti      1.97070625     2.79240321     3.73533780     1.32783001    -0.19612794     0.25349441
Ti      1.97411621    -1.01746677     3.70197682    -0.44767011     0.42172175    -1.81865070
O       4.01312903     4.61445203     0.91165498    -0.42100827     1.17380313    -0.00459251
O       3.53538002     0.89967700     0.84622401     0.27736171    -0.62958858    -0.95862897
O       7.09715700     4.78383600     0.66891000     0.96542980     1.31359175     1.82724204
O       0.05932500     1.01391202     0.59791198     0.71538812    -0.86546784     0.28852699
O       5.73668023     4.72187924     3.82390783     0.32950473     1.60585841     0.83380752
O       5.54327023     1.09009222     4.16427782     1.16768570    -2.09891673    -0.92807577
O       2.11712620     4.67855920     4.08951179    -0.54991983     1.15461292     0.57851668
O       1.95345221     0.89614723     4.14388983    -0.53129373    -0.45427347    -0.45705721
O       3.81722925     2.86776122     3.19754681    -0.61091902    -0.32376217    -0.66554341
O       3.86191123    -0.72795279     3.22799482    -1.22515836    -1.10614041    -0.59397262
O      -0.02257079    -0.95486775     3.14717480     1.96357741     0.01615708    -0.23827399
O       5.80520599    -0.44413100     1.59475698    -1.53396417    -0.93304546    -0.39968893
O       5.83716199     2.33150501     1.79723797    -1.65898205     0.67838222    -0.39284105
O       1.92095797     6.57625100     1.48011099     0.06184997    -0.34477041     0.98798841
O       1.70601099     2.97941101     1.84898902    -0.52891520    -0.49611202    -0.63748830
