# total energy = -4989.68490728 eV

CRYSTAL
PRIMVEC
        3.10128795     0.00000000     0.00000000
        0.24281118     4.85318297     0.00000000
       -0.00000134    -0.00006307     4.86077358
PRIMCOORD
6 1
Ti      1.67204878     2.42655979     2.43038668     0.00000000     0.00000000     0.00000000
Ti      0.00000000     0.00000000     0.00000000     0.00000000     0.00000000     0.00000000
O       1.59796395     0.94580147     0.94729311     0.01048651    -0.38973747    -0.39928013
O       1.74613355     3.90731811     3.91348020    -0.01048651     0.38973747     0.39928013
O       0.07408416     1.48073276     3.37768078    -0.01041503     0.38888824    -0.39826917
O       0.16872556     3.37238704     1.48309253     0.01041503    -0.38888824     0.39826917
