# total energy = -19074.36516245 eV

CRYSTAL
PRIMVEC
        7.60600008     0.00000000     0.00000000
        0.00000000     7.60600008     0.00000000
       -1.89786986    -1.89786986     4.85670466
PRIMCOORD
22 1
Ti      3.68963699     6.61333098     1.34823198     0.16173968    -1.04605731     0.62362670
Ti      3.83221602     2.82435599     1.36815799    -0.14871549     0.68651719    -1.78415265
Ti      0.03923601     6.65829798     1.02879598    -0.17510402    -0.30321468     0.70543049
Ti      0.25152297     2.80965698     0.92605400    -1.01321942     0.09093764     0.61948388
Ti      5.80599621     3.01838825     3.38622983     2.16293080    -1.20517394     0.03360382
Ti      5.88146424    -0.94906379     3.42662579     0.58214965     0.45889915     0.66609003
Ti      1.93050222     2.84772922     3.77297579    -1.81817453    -1.11243602    -0.42164308
Ti      1.18586823    -0.91797679     4.06584180     0.81322660     0.90879532    -3.22701386
O       3.55822101     4.65900399     1.10274199     0.47207271     1.77547466    -0.13193801
O       3.97712502     1.07625000     0.78030101     0.34973649    -2.40797887     1.86116570
O       0.23087898     4.87070002     0.43770700     0.34267547    -1.19941467     1.67609352
O      -0.00097300     0.89945601     0.60060798     0.11128201     0.32318342     0.07306615
O       5.65767322     4.78120324     3.77417782    -0.29741787     1.13524634     0.00500080
O       5.98344622     0.93878124     3.81814880    -0.16289770    -0.38182233     0.44653368
O       1.90382020     4.69493322     4.40812582    -0.54389034     0.97785954    -1.58593544
O       1.53331421     1.05413421     4.22586384     0.20512603    -1.40166055    -0.05996458
O       3.89704124     2.76394723     3.18307683    -0.16484094     0.03634076     1.59025823
O       0.19087021     2.98425721     3.23795680    -1.04705027     0.92393629    -0.46133373
O       5.69914500     6.44053000     1.55232199     0.23388229     0.67539768     0.09979715
O       5.96830799     2.89796698     1.40347300    -0.88758782     0.26621495     0.66125790
O       1.80837398     6.69986501     2.24497500    -0.07299442    -0.14352675    -0.63494933
O       1.89804000     2.38609298     1.78137001     0.89707108     0.94248269    -0.75447765
