# total energy = -19517.12912799 eV

CRYSTAL
PRIMVEC
        7.60600008     0.00000000     0.00000000
        0.00000000     7.60600008     0.00000000
       -1.89786986    -1.89786986     4.85670466
PRIMCOORD
23 1
Ti      3.70844898     6.76347201     1.18111701     2.18130442     0.80718760     0.67168552
Ti      3.92088099     2.96520397     1.19057499     0.18159246    -1.09628717     1.68280873
Ti      0.01426699     6.62578099     1.19188100    -2.07523532    -1.13614365     0.97725662
Ti      0.07682003     2.68454498     1.12243601    -1.66880058     1.94337136     0.30249580
Ti      5.71074520     2.71277521     3.67362181    -1.38499054    -0.34803571    -0.21194717
Ti      5.64969323    -1.15322275     3.63874083    -0.03220051     0.83272149    -1.13250786
Ti      1.91324125     2.94623720     3.64160479     1.72581661    -1.21701131    -1.15440055
Ti      1.85798620    -0.85478578     3.61656079    -0.09899034     0.38195886     1.50130626
O       4.09991298     4.70972600     0.72121001    -1.15768154     3.06480470     0.97695426
O       3.87207302     0.99921698     0.90019998    -0.32330297    -0.94258194    -1.44693615
O       0.18190299     4.76097300     0.93467498     0.42489475    -0.60106809    -0.53780453
O      -0.03115198     0.93213303     0.65864703     0.03530357    -1.79833769     0.75103957
O       5.43932220     4.54858322     4.18908681     0.94427784     1.85584969    -1.18203992
O       5.38646221     0.85195722     4.08676483     1.32819279     1.47777140    -0.52943687
O       1.99117720     4.73377821     3.95157883    -1.01581110     2.06490231     1.03101172
O       1.81537124     1.10804922     4.11057982    -0.62059846    -2.70398263    -0.94726263
O       3.88371524     2.87390222     3.12760583    -1.62270762    -0.05321517     0.11859475
O       3.82549224    -0.94116476     3.16559879    -1.71926158    -0.56069841    -0.57808448
O      -0.09064478    -1.04600176     3.40039379     0.87635158    -0.13150246    -0.49005399
O       5.70993101     6.80783098     1.56886301     0.08289960    -0.74257395     0.78139222
O       5.75452398     2.86899701     1.65858703     1.56266360    -0.43269137     0.39665195
O       1.77643501    -0.48170698     1.82020898     1.09434856    -1.04475376    -1.52861756
O       1.78518400     2.70024403     1.66976801     1.28193400     0.38031618     0.54789432
