# total energy = -19913.22690107 eV

CRYSTAL
PRIMVEC
        6.48973824     0.00000000     0.00000000
        2.02654897     6.60305647     0.00000000
        0.00000000     0.00000000    11.75108881
PRIMCOORD
24 1
Ti      3.55314898     3.91296518     4.35957014    -0.26414341    -1.96587366     0.66330321
Ti      4.96313812     2.69009144     7.39151874     0.26414341     1.96587366    -0.66330321
Ti      6.42259860     2.69009371     1.51592735     0.06586577    -0.68550932    -0.12803044
Ti      2.09368861     3.91296316    10.23516166    -0.06586577     0.68550932     0.12803044
Ti      2.53987465     0.61143706     1.51597447    -0.26414341    -1.96587366    -0.66330321
Ti      5.97641248     5.99161975    10.23511454     0.26414341     1.96587366     0.66330321
Ti      1.08041414     0.61143459     7.39147163    -0.06586577     0.68550932    -0.12803044
Ti      7.43587299     5.99162222     4.35961725     0.06586577    -0.68550932     0.12803044
O       2.76762544     2.32504848     5.99649068     1.82375254     2.04905222    -0.67133225
O       5.74866167     4.27800820     5.75459820    -1.82375254    -2.04905222     0.67133225
O       1.90445445     2.32507512     0.12098407    -0.61829552    -0.14594333     1.15473994
O       6.61183274     4.27798162    11.63010448     0.61829552     0.14594333    -1.15473994
O       4.73538731     0.97647989     0.12094594    -1.82375254    -2.04905222    -0.67133225
O       3.78089980     5.62657680    11.63014261     1.82375254     2.04905222     0.67133225
O       5.59855838     0.97645330     5.99652880     0.61829552     0.14594333     1.15473994
O       2.91772868     5.62660345     5.75456008    -0.61829552    -0.14594333    -1.15473994
O       1.46844917     4.01635330     3.17426225     0.54962467     1.98437687     2.00734994
O       7.04783794     2.58670338     8.57682662    -0.54962467    -1.98437687    -2.00734994
O       4.27453729     2.58664181     2.70131955     0.64370214     1.83366080     1.08933285
O       4.24174982     4.01641487     9.04976913    -0.64370214    -1.83366080    -1.08933285
O       0.45517474     0.71482500     2.70128202     0.54962467     1.98437687    -2.00734994
O       8.06111231     5.88823170     9.04980666    -0.54962467    -1.98437687     2.00734994
O       3.22847546     0.71488656     8.57686409    -0.64370214    -1.83366080     1.08933285
O       5.28781166     5.88817013     3.17422472     0.64370214     1.83366080    -1.08933285
