# total energy = -19518.53823639 eV

CRYSTAL
PRIMVEC
        5.93400000     0.00000000     0.00000000
        0.00000000     9.29699974     0.00000000
        0.00000000     0.00000000     4.64899994
PRIMCOORD
23 1
Ti      4.56151499     7.12030797     2.30163899     0.10747344    -0.80350629    -0.07982738
Ti      4.43418002     2.28312202     2.36757997    -0.07130237    -0.26528369    -0.42193593
Ti      1.44347700     7.05536200     2.21301100    -0.13697274    -0.24395870     0.30352527
Ti      1.44204600     2.29324301     2.29388802    -0.26393489    -0.28761142     0.16970521
Ti      3.00086301     4.43480402     0.08720402    -0.51215494     0.38151714     0.44660773
Ti      2.97756503     9.26148100     4.63705901    -0.27940934     0.51563853     0.05355019
Ti      0.01711301     4.70422599     0.05570400     0.09150200     0.42581958    -0.24555098
Ti      0.00544301     0.01877500     4.60905098     0.18475877     0.65665819     0.21140749
O       4.43316902     5.65695899     0.90987498    -0.56314559    -0.58231857    -0.20127991
O       4.40876803     0.84424399     0.90160299     0.45571689     0.49916341     0.15824040
O       1.54877899     5.59842998     0.90588700     0.17716810    -0.05568806     0.18330610
O       1.53057201     0.87795898     0.97813901    -0.83316500     0.13975391    -0.50158667
O       4.45368602     8.27352602     3.83131902    -0.09558954    -0.06338363    -0.49871989
O       4.37104398     3.79188102     3.59591700     0.06584315     0.67814954     0.88261556
O       1.43981298     8.37048298     3.76241998     0.30446732    -0.23956700    -0.22084345
O       1.42465602     3.78249098     3.74806102     0.73951125    -0.26642475    -0.42721286
O       2.94894299     1.35520198     3.26577999    -0.16350114     0.55727139    -0.25195175
O       0.06722001     6.14330998     3.29693302    -0.39401399    -0.15290562    -0.74418860
O       5.85789802     1.36261703     3.17665802     0.56142012    -0.14580294     0.64708751
O       2.94234098     7.94554301     1.46402199     0.44783903    -1.01637468     0.87251344
O       2.93928201     3.12365499     1.33328902    -0.03058148     0.33072678     0.16032171
O       0.03325001     7.94852001     1.44870702    -0.26538191     0.29927112    -0.36689784
O       5.85272002     3.28635800     1.40956198     0.47345288    -0.36114474    -0.12888585
