# total energy = -4980.59165246 eV

CRYSTAL
PRIMVEC
        4.06746691     0.00000000     0.00000000
       -0.00000698     3.00638876     0.00000000
       -2.03375835    -1.50323371     4.61780753
PRIMCOORD
6 1
Ti     -0.00017565     2.25490227     1.15445161    -0.00531499    -0.01105575    13.47473552
Ti      2.03387704    -0.75174722     3.46335523     0.00531499     0.01105575   -13.47473552
O       0.00004242     0.75159007     0.75220298     0.00492264     0.01122338    -4.82929355
O       2.03365882     0.75156493     3.86560386    -0.00492264    -0.01122338     4.82929355
O      -0.00001821    -0.75158718     3.06110660    -0.00067080    -0.00034890     1.13092457
O       2.03371940     2.25474209     1.55670029     0.00067080     0.00034890    -1.13092457
