# total energy = -19955.07829413 eV

CRYSTAL
PRIMVEC
        5.81495811     0.00000000     0.00000000
        0.00002894     5.59945717     0.00000000
        0.00000000     0.00000000     9.93674278
PRIMCOORD
24 1
Ti      2.10765981     3.31823308     3.68646079     0.06363586    -0.31138333     0.17960731
Ti      3.70732724     2.28122398     6.25028233    -0.06363586     0.31138333    -0.17960731
Ti      5.01503752     2.28122590     1.28187108     0.06498414     0.31130132    -0.17885397
Ti      0.79994958     3.31823144     8.65487221    -0.06498414    -0.31130132     0.17885397
Ti      2.10764540     0.51850461     1.28191094     0.06363586    -0.31138333    -0.17960731
Ti      3.70734171     5.08095262     8.65483235    -0.06363586     0.31138333     0.17960731
Ti      0.79993511     0.51850257     6.25024253    -0.06498414    -0.31130132    -0.17885397
Ti      5.01505194     5.08095471     3.68650065     0.06498414     0.31130132     0.17885397
O       1.84048116     1.97166399     5.07064391     0.84073073     0.71336544    -0.07694826
O       3.97450594     3.62779307     4.86609921    -0.84073073    -0.71336544     0.07694826
O       1.06705235     1.97168664     0.10230434    -0.84040112     0.71317363    -0.07750593
O       4.74793481     3.62777048     9.83443855     0.84040112    -0.71317363     0.07750593
O       3.97449147     0.82806443     0.10227212    -0.84073073    -0.71336544    -0.07694826
O       1.84049563     4.77139263     9.83447077     0.84073073     0.71336544     0.07694826
O       4.74792035     0.82804184     5.07067618     0.84040112    -0.71317363    -0.07750593
O       1.06706665     4.77141528     4.86606699    -0.84040112     0.71317363     0.07750593
O       0.21128858     3.40590729     2.68416219     0.02228787    -0.13713318     0.18372287
O       5.60369853     2.19354983     7.25258093    -0.02228787     0.13713318    -0.18372287
O       3.11877278     2.19349771     2.28424096     0.02269179     0.13718460    -0.18394090
O       2.69621427     3.40595940     7.65250204    -0.02269179    -0.13718460     0.18394090
O       0.21127411     0.60617864     2.28420920     0.02228787    -0.13713318    -0.18372287
O       5.60371294     4.99327847     7.65253375    -0.02228787     0.13713318     0.18372287
O       2.69619985     0.60623076     7.25261264    -0.02269179    -0.13718460    -0.18394090
O       3.11878725     4.99322630     2.68413048     0.02269179     0.13718460     0.18394090
