# total energy = -4986.56835751 eV

CRYSTAL
PRIMVEC
        2.73287736     0.00000000     0.00000000
        0.42713279     4.26065248     0.00000000
       -0.00000284    -0.00005557     4.28738496
PRIMCOORD
6 1
Ti      1.58000370     2.13029846     2.14369248     0.00000000     0.00000000     0.00000000
Ti      0.00000000     0.00000000     0.00000000     0.00000000     0.00000000     0.00000000
O       1.44968002     0.83032762     0.83554817    -1.95732680     1.45348321     1.50411776
O       1.71032744     3.43026928     3.45183674     1.95732680    -1.45348321    -1.50411776
O       0.13032252     1.29994831     2.97924152     1.95767930    -1.45540948     1.50606692
O       0.29680762     2.96064850     1.30814339    -1.95767930     1.45540948    -1.50606692
