# total energy = -19960.05484527 eV

CRYSTAL
PRIMVEC
        7.60600008     0.00000000     0.00000000
        0.00000000     7.60600008     0.00000000
       -1.89786986    -1.89786986     4.85670466
PRIMCOORD
24 1
Ti      3.83685802     6.79682700     1.06583500     0.34253715     0.15374894    -0.32538788
Ti      3.76742197     2.92076801     1.24034602     1.15490809    -0.69690780    -1.30565783
Ti     -0.09719002     6.64551602     1.22239802     0.02250745    -1.79649318     0.77310401
Ti     -0.06060201     2.65721900     1.27182100    -0.27118129     1.32830592     1.00967824
Ti      5.55773725     2.82322021     3.75388583     0.87973978    -1.23473881    -0.07853103
Ti      5.66052623    -0.97775377     3.64604279     0.34483751     0.76231052    -0.06574982
Ti      1.92345024     2.86905924     3.61206680    -0.89183708    -0.24197998     0.66693952
Ti      1.94828125    -0.87925975     3.43374783     0.19620584     0.46210454     1.61079004
O       4.01766799     4.81679300     0.86584902    -0.67413424     0.22083779    -0.40756140
O       4.10065902     1.14856398     0.64222200    -1.31723809    -1.72076799    -0.32351303
O      -0.22361798     4.73058902     0.89744202     0.35015687     0.04108727    -0.19674500
O      -0.12673901     0.82008302     0.85923399     0.38418929     1.57852603    -0.57017936
O       5.61204221     4.67871124     4.14401583    -0.10528620     0.61848604    -0.93675556
O       5.87078724     0.88091825     4.24369679    -0.23993286    -0.38315905    -0.64192037
O       2.20957823     4.84284625     3.95706582    -0.72605743    -0.38997402     0.19879340
O       1.91095520     1.04616723     4.05299883    -0.64881555    -1.03618427     0.21074903
O       3.78370121     2.40930920     3.35361679     1.35878610     1.65140860    -1.10651219
O       3.88035523    -0.88794175     3.08973483    -1.42407518     0.03135616     0.73308143
O       0.06128825     2.76073422     3.29237379    -0.44573715     0.60233950    -0.06823376
O       0.05535422    -1.03562978     3.35144680    -0.48137317    -0.12083701    -1.43666459
O       5.59537398    -0.59184702     1.71169599     2.88892884    -1.27846944     0.03684958
O       5.72721002     2.74663800     1.71219898    -0.45234617     0.54521034     0.82763507
O       1.92383199     6.72117201     1.39129298    -0.25376181     0.17511224     1.29193894
O       1.94209702     2.69268600     1.64434200     0.00897958     0.72867739     0.10385255
