# total energy = -19959.60749700 eV

CRYSTAL
PRIMVEC
        5.36359703     0.00000000     0.00000000
        0.56945465     5.68001498     0.00000000
        0.00000000     0.00000000     9.61170914
PRIMCOORD
24 1
Ti      2.28150431     3.36597165     3.56587562     0.34012339    -0.87264688     0.56488032
Ti      3.65154754     2.31404338     6.04583385    -0.34012339     0.87264688    -0.56488032
Ti      4.85775267     2.31404531     1.23994072    -0.45976252    -0.17236785     0.09205967
Ti      1.07529920     3.36596999     8.37176891     0.45976252     0.17236785    -0.09205967
Ti      1.99677709     0.52596421     1.23997928     0.34065510    -0.87294127    -0.56970294
Ti      3.93627477     5.15405104     8.37173036    -0.34065510     0.87294127     0.56970294
Ti      0.79057191     0.52596212     6.04579534     0.45880324     0.17269052     0.09412169
Ti      5.14247990     5.15405307     3.56591418    -0.45880324    -0.17269052    -0.09412169
O       1.89812705     2.00002985     4.90478173     0.68023727     0.80778126    -0.27936692
O       4.03492480     3.67998523     4.70692774    -0.68023727    -0.80778126     0.27936692
O       1.18473454     2.00005282     0.09895794    -0.32116587     0.10826379     0.32602423
O       4.74831737     3.67996231     9.51275131     0.32116587    -0.10826379    -0.32602423
O       3.75019757     0.83997757     0.09892677    -0.68038254    -0.80808105    -0.27925996
O       2.18285428     4.84003751     9.51278247     0.68038254     0.80808105     0.27925996
O       4.46359014     0.83995466     4.90481295     0.32112705    -0.10770895     0.32639010
O       1.46946166     4.84006043     4.70689658    -0.32112705     0.10770895    -0.32639010
O       0.54124647     3.45490722     2.59636249     0.03414015     0.17319343     0.22833564
O       5.39180533     2.22510786     7.01534697    -0.03414015    -0.17319343    -0.22833564
O       3.09975589     2.22505496     2.20952280     0.44925108     0.29281996    -0.11400841
O       2.83329596     3.45496006     7.40218656    -0.44925108    -0.29281996     0.11400841
O       0.25651924     0.61489956     2.20949208     0.03435047     0.17329345    -0.22812558
O       5.67653255     5.06511547     7.40221723    -0.03435047    -0.17329345     0.22812558
O       2.54856873     0.61495246     7.01537765    -0.44899525    -0.29299300    -0.11418685
O       3.38448312     5.06506262     2.59633182     0.44899525     0.29299300     0.11418685
