# total energy = -19517.58497316 eV

CRYSTAL
PRIMVEC
        7.60600008     0.00000000     0.00000000
        0.00000000     7.60600008     0.00000000
       -1.89786986    -1.89786986     4.85670466
PRIMCOORD
23 1
Ti      3.82862900     6.62288998     1.16331802     0.82931837    -0.19796628     1.29096320
Ti      3.66228202     2.84060400     1.18062699     1.51808426    -0.42830635     1.01552879
Ti      0.16772601     6.79247499     1.11862303    -0.93735026    -0.14571861     0.41937588
Ti     -0.03378903     2.97910901     1.16150998    -1.66075971    -0.41852921     0.54088549
Ti      5.54650922     2.92624923     3.73815482     1.78026977    -0.49155757    -1.24070660
Ti      5.78017320    -0.84991280     3.63118280    -1.64898071    -0.30404077    -0.50340727
Ti      1.88881421     2.71887323     3.71429681     1.71977735    -0.23806496    -0.01931619
Ti      1.85091322    -1.11517279     3.57583483     1.54824228     0.60651189     0.07750028
O       4.02057899     4.67854402     0.76555702    -1.07981899    -0.31408814    -0.28945490
O       3.63523403     0.94728199     0.81979002     0.05086107    -0.73071216    -0.32628777
O      -0.08588298     4.80150502     0.80120298     0.27658935     0.52456386     0.61376240
O       0.29601498     1.06310402     0.92996202    -0.56035800    -1.75236943    -0.88050057
O       5.85065824     4.75230021     4.06324783     0.36068991     1.66371031     0.28904790
O       5.40080323     0.96880422     4.13306382     0.78081372    -0.86174360    -0.64370445
O       1.87917022     4.66297721     4.02344782    -0.76926972     0.07666338     0.37144407
O       2.15286424     0.81238222     3.99082383    -1.07168762     0.71082904     0.45907938
O       3.90997222     2.85907123     3.29146382    -4.64482043     0.13341588    -1.40514954
O       3.77181922     6.30225625     3.13740682    -0.05117166     1.08893201     0.37915970
O      -0.07029479    -0.72526880     3.19542682     2.23821015    -0.31968749     0.02131960
O       5.70734899     6.67088102     1.68186601     0.09215249     0.55863870    -0.68398389
O       5.70837898     2.95601899     1.74346499     1.07938370    -0.68195683     0.11064567
O       1.95897502     6.25207300     1.53436600    -1.31258130     1.16457647     0.61072207
O       1.74524001     2.96309102     1.77187102     1.46240597     0.35689959    -0.20692220
