# total energy = -19945.26600878 eV

CRYSTAL
PRIMVEC
        5.76371817     0.00000000     0.00000000
        1.51002071     5.94558264     0.00000000
        0.00000000     0.00000000    10.39859994
PRIMCOORD
24 1
Ti      2.98390756     3.52334694     3.85780661     0.26019548    -2.05969557     0.91520971
Ti      4.28983149     2.42223609     6.54079392    -0.26019548     2.05969557    -0.91520971
Ti      5.58601910     2.42223815     1.34145214    -0.72520743    -0.52378893     0.13168784
Ti      1.68771998     3.52334512     9.05714850     0.72520743     0.52378893    -0.13168784
Ti      2.22889733     0.55055567     1.34149383     0.26019548    -2.05969557    -0.91520971
Ti      5.04484175     5.39502760     9.05710681    -0.26019548     2.05969557     0.91520971
Ti      0.93270963     0.55055338     6.54075222     0.72520743     0.52378893     0.13168784
Ti      6.34102944     5.39502982     3.85784830    -0.72520743    -0.52378893    -0.13168784
O       2.35595716     2.09354085     5.30632620     1.53154424     1.83842583    -0.67116256
O       4.91778183     3.85204219     5.09227432    -1.53154424    -1.83842583     0.67116256
O       1.58934969     2.09356484     0.10705944    -0.48159120    -0.08297082     0.90101233
O       5.68438943     3.85201830    10.29154079     0.48159120     0.08297082    -0.90101233
O       4.16277157     0.87925074     0.10702570    -1.53154424    -1.83842583    -0.67116256
O       3.11096747     5.06633229    10.29157453     1.53154424     1.83842583     0.67116256
O       4.92937917     0.87922679     5.30635994     0.48159120     0.08297082     0.90101233
O       2.34435983     5.06635631     5.09224058    -0.48159120    -0.08297082    -0.90101233
O       1.12788941     3.61644053     2.80892143     0.35227623     1.27909653     1.29450721
O       6.14584958     2.32914250     7.58967909    -0.35227623    -1.27909653    -1.29450721
O       3.68280626     2.32908706     2.39041193     0.88082505     1.20465844     0.38550184
O       3.59093279     3.61649603     8.00818842    -0.88082505    -1.20465844    -0.38550184
O       0.37287915     0.64364908     2.39037871     0.35227623     1.27909653    -1.29450721
O       6.90085990     5.30193401     8.00822163    -0.35227623    -1.27909653     1.29450721
O       2.83592253     0.64370452     7.58971225    -0.88082505    -1.20465844     0.38550184
O       4.43781652     5.30187851     2.80888822     0.88082505     1.20465844    -0.38550184
