# total energy = -19075.79831144 eV

CRYSTAL
PRIMVEC
        7.60600008     0.00000000     0.00000000
        0.00000000     7.60600008     0.00000000
       -1.89786986    -1.89786986     4.85670466
PRIMCOORD
22 1
Ti      3.93319601     6.59791700     1.16173801    -0.32926691     0.57980558    -0.50669700
Ti      3.69833598     2.80386000     1.17084203     0.28477832    -0.09253275    -0.15237803
Ti      0.18347501     6.69451598     1.08757599    -0.30353787     1.31883140     1.23414283
Ti     -0.09322902     2.92113700     1.18316900    -0.63864709    -1.04468717     0.16171962
Ti      5.65570521     2.80527020     3.63262682    -0.46533925     0.40090172    -0.68194963
Ti      6.14977425    -0.88689980     3.62305782    -0.11463345    -0.46758485     2.30650691
Ti      1.79418425     2.85837722     3.67742379     0.49289634    -1.37543426    -0.55254801
Ti      1.47416822    -1.14821076     3.75391282     0.57174028     2.17217649    -1.30406221
O       3.78374402     4.75926202     0.87186101    -0.16964711    -0.03823669    -0.85974379
O       4.05180902     0.89891900     0.63344099    -0.81352100     0.53791355     1.90664597
O      -0.14493498     4.85622300     0.71669301    -0.21688909    -0.74661367     0.03342487
O      -0.27800798     0.96203900     0.87221100     1.08267626     0.58181284    -0.29975346
O      -1.48423778     4.86468524     4.15502780    -0.13509095    -0.15645246    -2.40433665
O       5.72774423     0.95435524     3.98924181     0.28335958     0.35368288     0.42044957
O       2.20973524     4.74346925     4.02412083    -0.82142714    -0.81323663     0.49335271
O       1.62146720     0.92344224     3.99692181    -0.02414601    -0.24150741     0.64078317
O       3.70276022     2.65586024     3.23640880     0.10154499     0.28336781    -0.48953977
O      -0.04832679     2.94880720     3.21125780    -0.59444364    -0.09877693    -0.08135411
O       5.69645001     6.73622102     1.88445300     0.12397967    -0.77727511    -0.80033303
O       5.54439801     3.04202897     1.59798602     0.77999046    -0.38945105     0.60711327
O       2.05856099     6.59194201     1.88060302    -0.50128251     0.40483860     0.04571937
O       1.72207501     2.98402501     1.57805699     1.40690611    -0.39154213     0.28283765
