# total energy = -39037.04625711 eV

CRYSTAL
PRIMVEC
        7.60600008     0.00000000     0.00000000
        0.00000000     7.60600008     0.00000000
       -3.79573973    -3.79573973     9.71340985
PRIMCOORD
46 1
Ti      1.92870243     4.72704544     6.10550561    -0.17989090     1.30817777     0.14227616
Ti      3.78013900     6.77728703     1.30709099    -0.53365888     0.63136984    -0.05325297
Ti      2.00968745     0.94525043     6.02072062    -0.25823887    -1.51487783     0.35577422
Ti      3.81842000     2.82181901     1.21269698     0.59720012    -0.60559092    -0.14021131
Ti     -1.90621155     4.77014142     6.08141862     0.36840991     0.96313329     0.28567872
Ti     -0.00426199     6.66426403     1.15824702     0.42930985    -0.07095605     0.54122282
Ti     -1.88277757     0.98543943     6.03503963    -0.09667146    -0.56515182    -0.58898982
Ti     -0.06766600     2.85496598     1.26427298    -0.15287245     0.14572607    -0.96574964
Ti      3.79532147     0.99584845     8.46211664    -0.37647701    -0.78382526     0.48596002
Ti      5.66699298     2.87805102     3.70274498     0.62528018    -0.54033733    -0.59585209
Ti      3.78824843    -2.79081255     8.52468365     0.17130778     0.76026160    -0.01332372
Ti      5.67024102    -0.91990199     3.64350501     0.66001837     0.22675776     0.62938418
Ti      0.01587447     0.86912146     8.27265261     0.13569310     0.11793886    -0.25404051
Ti      1.92404599     2.78003401     3.39370202    -0.70942805     0.02139956     2.16777656
Ti     -0.01734056    -2.94408753     8.50647561     0.19486475     0.56590876     0.26223334
Ti      1.82536999    -0.97645199     3.74261801    -0.01210347    -0.16543050     1.06351356
O       1.95017147    -0.99597757     5.77783165    -0.37769674    -0.05724769    -1.43074668
O       3.80943500     1.02514302     1.06761299    -0.12729099    -2.21024502    -1.67004217
O      -2.04908756     2.93520645     5.72231762     0.40757888    -1.45800861    -0.60546468
O      -0.02844698     4.75159000     0.81281599     0.28137546     0.47883009    -0.47283453
O      -1.79801354    -0.88426254     5.70381261    -0.51072335    -0.97586257    -1.09968720
O       0.16327801     0.96204699     0.84047900    -0.55209422    -0.41118383    -0.99087602
O       3.58987846     2.90282345     8.84147460     0.50840010    -0.23005905     0.43680668
O       5.91868101     4.69787698     4.13280802    -0.77206297     1.38900506    -0.81189503
O       3.60156645    -0.90440356     8.96097563     0.77133895    -0.35878704    -0.42431291
O       5.80004100     0.95936898     4.02291298    -0.49704739     0.07925120     0.15456809
O       0.01209144     2.61098145     9.08575462     0.02723571     0.89265572    -0.04474647
O       1.96113200     4.58065898     4.25002501    -0.19758909    -0.56472322    -1.63206542
O      -0.06118554    -0.86616955     9.04610961    -0.00085566     0.60784192    -0.96997885
O       1.89512000     0.93515600     4.12886797     0.01756758     1.26194058    -1.01069948
O       1.90712645     0.83084347     7.99396263    -0.32714652     0.90136483     0.13337423
O       3.81645199     2.69335102     3.14756798     0.34874045     1.04740560     1.08515557
O       1.81750843    -2.76512454     8.08413861     0.90547345    -0.58073014     0.89139537
O       3.66393702    -0.86498498     3.32602697     2.25857561    -0.73332492    -0.55363971
O      -1.98321854     1.11331046     7.95645364     1.24436683    -0.30494220     0.85860968
O      -0.02507300     2.78843602     3.20378999     0.17865908     0.23003000     0.09155368
O      -1.87602654    -2.65114855     8.11236360    -0.57804617    -0.79192578     0.27238766
O       0.04617199    -0.87494600     3.20145801    -0.82600114    -0.43332257    -0.12873853
O       3.84578545     4.82961645     6.43551864    -0.74221785    -0.44817404     1.03841702
O       5.71985800     6.60904798     1.61898398    -0.93366252    -0.11316381     0.81026752
O       3.84965744     0.78261643     6.40365561    -0.86058660     0.83663754     0.13768468
O       5.70749801     2.70313598     1.53281398    -0.48066020     1.07068514     0.76721515
O       0.01661643     4.79182044     6.53412664    -0.24073479    -0.99652267     0.19162053
O       1.90467403     6.62975299     1.54662000     0.13221132    -0.63114255     0.32800527
O       0.03617646     0.80392544     6.30025665    -0.10313830     1.15848629     1.28520444
O       1.89751902     2.79920700     1.52305002     0.18328887     0.85072719     0.04106259
