# total energy = -19519.98326234 eV

CRYSTAL
PRIMVEC
        5.17575250     0.00001323     0.00000000
        0.00001429     5.50856584     0.00000000
        0.00000000     0.00000000     9.26345890
PRIMCOORD
23 1
Ti      1.84606506     3.36797239     3.38117259     0.04862164     0.03975081     0.05887828
Ti      3.35490234     2.18309862     5.77131977    -0.00272743    -0.00241684     0.03132016
Ti      4.55712400     1.94935768     1.40748273    -0.01323142    -0.01305992     0.02060406
Ti      0.86993129     3.28697436     7.94425341    -0.02495437     0.04059696    -0.02529966
Ti      1.98925896     0.53405012     1.21938806     0.01851324     0.01812731     0.01794759
Ti      3.18274070     5.15284780     7.93651266     0.02509938     0.03702107     0.00748166
Ti      0.66509561     0.70542308     5.67055139     0.01939127    -0.01371530    -0.01901589
Ti      4.50100683     4.85263108     3.53776331     0.04453384    -0.03342821     0.03218945
O       1.57510388     1.93076537     4.65741699    -0.05221167    -0.01114805     0.06021860
O       3.53223708     3.54684880     4.52210754     0.06005071     0.03421137    -0.02282498
O       0.77279402     2.09109087     0.11024411    -0.03876736    -0.00560758     0.00694892
O       3.51931422     0.91621399     0.06931350     0.00764749    -0.08419775    -0.05940536
O       1.72612770     4.68425413     9.15493556     0.04308913     0.01803475     0.04028560
O       4.11173766     0.77445819     4.72820954    -0.02235652    -0.01913956    -0.06333581
O       0.96278844     4.63817658     4.57867914     0.03201179    -0.00510390     0.05726209
O       0.16920230     3.35803053     2.43189128    -0.02494922     0.01302470    -0.02277561
O       4.95967769     2.11595076     6.81957620    -0.00677897     0.03623123    -0.00872838
O       2.77801905     2.16377618     2.10859599    -0.04670976    -0.04133975    -0.03003718
O       2.52211955     3.39930479     7.15558162    -0.02372461    -0.04189203    -0.01782007
O       0.23322463     0.54537750     2.18667579     0.05780922    -0.01179983    -0.00304624
O       4.92553971     4.74919243     7.39035441    -0.05197410     0.02123501    -0.01795248
O       2.32784525     0.70591065     6.75870453    -0.02947334     0.00641928    -0.02533926
O       2.80133188     4.88234926     2.45269290    -0.01890919     0.01819648    -0.01755576
