# total energy = -19923.87134561 eV

CRYSTAL
PRIMVEC
        6.86045969     0.00000000     0.00000000
        0.00003190     5.97403965     0.00000000
        0.00000000     0.00000000    11.27522004
PRIMCOORD
24 1
Ti      2.48660556     3.54021024     4.18302636     0.36273445    -0.82601091     0.87391186
Ti      4.37388609     2.43382915     7.09219413    -0.36273445     0.82601091    -0.87391186
Ti      5.91671654     2.43383108     1.45453883     0.36349062     0.82581242    -0.87385581
Ti      0.94377512     3.54020850     9.82068178    -0.36349062    -0.82581242     0.87385581
Ti      2.48658986     0.55319054     1.45458404     0.36273445    -0.82601091    -0.87391186
Ti      4.37390179     5.42084904     9.82063657    -0.36273445     0.82601091     0.87391186
Ti      0.94375942     0.55318836     7.09214892    -0.36349062    -0.82581242    -0.87385581
Ti      5.91673223     5.42085116     4.18307157     0.36349062     0.82581242     0.87385581
O       2.17139006     2.10356083     5.75365866     0.96813691     1.37142256    -0.80371686
O       4.68910160     3.87047857     5.52156183    -0.96813691    -1.37142256     0.80371686
O       1.25890234     2.10358497     0.11608473    -0.96790243     1.37239521    -0.80540351
O       5.60158937     3.87045449    11.15913545     0.96790243    -1.37239521     0.80540351
O       4.68908590     0.88345868     0.11604812    -0.96813691    -1.37142256    -0.80371686
O       2.17140575     5.09058072    11.15917205     0.96813691     1.37142256     0.80371686
O       5.60157362     0.88343460     5.75369526     0.96790243    -1.37239521    -0.80540351
O       1.25891791     5.09060486     5.52152523    -0.96790243     1.37239521     0.80540351
O       0.24927565     3.63374959     3.04571834    -0.79496611     0.06550788     0.03350123
O       6.61121600     2.34028980     8.22950215     0.79496611    -0.06550788    -0.03350123
O       3.67951236     2.34023428     2.59192778    -0.79388779    -0.06532327    -0.03387712
O       3.18097929     3.63380511     8.68329252     0.79388779     0.06532327     0.03387712
O       0.24925989     0.64672970     2.59189175    -0.79496611     0.06550788    -0.03350123
O       6.61123176     5.32730969     8.68332855     0.79496611    -0.06550788     0.03350123
O       3.18096354     0.64678523     8.22953812     0.79388779     0.06532327    -0.03387712
O       3.67952812     5.32725417     3.04568231    -0.79388779    -0.06532327     0.03387712
