# total energy = -19518.10424184 eV

CRYSTAL
PRIMVEC
        5.93400000     0.00000000     0.00000000
        0.00000000     9.29699974     0.00000000
        0.00000000     0.00000000     4.64899994
PRIMCOORD
23 1
Ti      4.46744801     7.06174298     2.25690499     0.88605596     0.07546653    -0.04277057
Ti      4.49761498     2.28961603     2.37310300    -0.25485992    -0.12837883    -0.49378774
Ti      1.43801600     7.03682100     2.24818901    -0.70827413     0.18002305     0.10214020
Ti      1.47865798     2.22420601     2.33249399     0.12574088     0.55822578    -0.17295509
Ti      2.98268402     4.47257998     0.16146600    -0.16302188    -0.12879020     0.65976126
Ti      2.94505402     9.29282501     4.57497397     0.34153364    -0.64689494    -0.26150571
Ti      0.02360803     4.60192100     4.62739300     0.11928972     0.47931706    -0.17583087
Ti      0.01363801     0.13740997     0.03519801    -0.57012074    -1.24831013     0.45972113
O       4.47499202     5.59748598     0.89078899    -0.74386361    -0.04020230     0.19056227
O       4.36026501     0.93249202     1.01109098     0.67979093    -0.02850300    -0.43160842
O       1.49185301     5.52862800     0.94979500     0.36535364     0.06827490    -0.29050031
O       1.56923598     0.94698100     0.87884800    -0.89370088     0.30880683     0.61217012
O       4.48426701     8.49283898     3.77436600    -0.17165797    -0.90439281    -1.18891788
O       4.37966402     3.74467598     3.70977298     0.33282017     0.39497121     0.24488918
O       1.34437200     8.43642000     3.65129202     1.01077945    -0.20024222     0.33056403
O       1.50544800     3.63614299     3.76304203     0.01778381     1.27733995     0.26736295
O       2.87997903     1.45678602     3.27206799     1.05500784    -0.26019188    -0.11480623
O       5.92247600     6.08199500     3.24975401    -0.09354577     0.20116704    -0.62687349
O       0.02532499     1.36782900     3.28427002    -0.31036543     1.30697630    -0.95134220
O       2.93113501     7.90824200     1.21428499     0.09338379    -1.29784219     1.75212184
O       3.02415300     3.17223701     1.42212999    -0.36483325     0.54129789    -0.05072634
O       0.01051099     7.95666801     1.39854398    -0.29375713     0.00843965    -0.03602014
O       0.02062198     3.26391802     1.42472598    -0.45953884    -0.51655744     0.21835153
