# total energy = -19517.94020351 eV

CRYSTAL
PRIMVEC
        7.60600008     0.00000000     0.00000000
        0.00000000     7.60600008     0.00000000
       -1.89786986    -1.89786986     4.85670466
PRIMCOORD
23 1
Ti      3.81841699     6.58621398     1.26116200     0.50945940    -0.13772968    -0.59755416
Ti      3.65727902     2.75905800     1.33405997     1.17166346     0.36318028    -0.08371489
Ti     -0.01897799     6.74025298     1.16973599    -0.02673151    -0.28994444    -0.20805734
Ti      0.00557901     2.93423901     1.13579599    -1.41081059     0.35898810    -0.37557275
Ti      5.60653221     2.93361722     3.58684680    -0.17567917    -0.18093888    -0.25774599
Ti      5.78906920    -0.85677078     3.64291281    -0.47244372    -0.37629163    -0.34291124
Ti      1.76231921     2.70114722     3.73864283     1.78197287     0.15377928     0.20940717
Ti      1.89521721    -1.05346379     3.63565382     0.41104704     0.52198581     0.30837489
O       3.96286698     4.70879401     0.87139501    -1.29679318    -0.24766083     0.13740006
O       3.95489497     0.94201398     0.77319803    -0.60075467    -0.93147503    -0.22120494
O      -0.02973002     4.86537698     0.61554602     0.62516911     0.36861148     2.28877786
O      -0.14279599     1.03018602     0.67502400     0.41351942    -2.03497671     0.38904868
O       5.86644423     4.74251922     3.75379582     0.24110220     1.74415501     1.57398880
O       5.75114725     1.03449824     4.12427382     0.25087214    -0.26680990    -1.54992661
O       1.80922125     4.57550823     3.86645982    -0.29043603     2.50461485     0.91123658
O       2.19716220     0.96483322     4.13762882    -1.21315414    -1.33701811    -0.02435556
O       3.79757825     2.86804121     3.21970283    -1.13791515    -0.01925628    -0.48512569
O       3.91921721    -0.88392577     3.08817281    -1.01693853    -0.28923122     1.24804710
O       0.01387323    -0.63042076     3.32972682     1.48545746    -0.75227241    -1.04832142
O       5.79650700     6.58101402     1.59201700     0.50727473     0.52648062    -0.33375040
O       5.85492801     2.78989798     1.74505199     0.02714829     0.09450762    -0.66265426
O       1.95390503     6.63178302     1.67574602    -1.11176547     0.06030036    -0.41016927
O       1.70170502     2.64997600     1.75322598     1.32873581     0.16700195    -0.46521712
