# total energy = -19072.44033333 eV

CRYSTAL
PRIMVEC
        5.93400000     0.00000000     0.00000000
        0.00000000     9.29699974     0.00000000
        0.00000000     0.00000000     4.64899994
PRIMCOORD
22 1
Ti      4.43051202     6.66898699     2.47105900     0.61299981     2.50866768    -1.55385551
Ti      4.41666801     2.41505998     2.14331900     0.59933645    -0.43455156     0.28102682
Ti      1.53898699     7.14730400     2.47566300     0.82796263     1.47216639    -0.01576755
Ti      1.54157302     2.33322399     2.17321698    -0.32742137     0.31234467     0.72645107
Ti      3.03116200     4.61785400     4.53965197    -1.77972855    -0.14507635     1.39158876
Ti      2.94305801     0.14055599     0.08971502     0.89879244    -1.31755125    -0.77286490
Ti      5.76099000     4.66082801     4.37795298     1.13710448    -1.51383885     0.50604163
Ti      5.89701999     9.06669800     0.18876599    -1.22662467    -1.66460839    -0.52996575
O       4.56254000     5.34736400     0.95940301    -0.53095820     1.49511401     1.55834723
O       4.50928699     0.82752400     0.89490202     1.09690166     0.99377442     0.14344164
O       1.40054300     0.71730701     1.07859198    -0.24098702     1.52638918    -0.05158740
O       4.41491601     8.29728798     3.73593799     0.75191297     1.78697161     1.60066812
O       4.24870498     4.09835000     3.35446300     2.20493132    -2.13807285    -1.21807292
O       1.65353598     8.50231998     3.71136797    -1.32114385     0.34771226     0.78494292
O       1.55362001     3.88635599     3.68292300    -0.74766088    -0.35668979    -0.45900816
O       3.07155998     6.19986701     3.54697202    -2.56850216     0.17737636     0.17060767
O       3.02774701     1.50733499     3.10197798    -0.37784638    -0.62317316     2.08048834
O       0.09297200     6.36195702     3.65713800     0.44858851    -1.39745679    -0.81112447
O       3.01668202     8.00776399     1.55284101    -0.32019039    -1.87888961    -0.28881110
O       2.97161099     2.87032202     1.15205697    -0.70002063     2.59521156    -1.88438715
O       5.92354198     7.92692598     1.70681000     0.10881170    -0.98539571    -1.51705144
O       5.85819298     3.26594599     1.30388100     1.45374212    -0.76042410    -0.14110785
