# total energy = -4986.09495868 eV

CRYSTAL
PRIMVEC
        3.99859726     0.00000000     0.00000000
        1.88168590     3.52817775     0.00000000
       -2.94017915    -1.76411142     5.28078536
PRIMCOORD
6 1
Ti      1.41117008     2.64626919     1.32019599     0.00018203    -0.00018203    -0.00000000
Ti      1.52893379    -0.88220299     3.96058872    -0.00018203     0.00018203    -0.00000000
O       0.47046291     0.88203994     0.86019667    -0.00031110    -0.00051936    -2.51458122
O       2.46964079     0.88202624     4.42058809     0.00031110     0.00051936     2.51458122
O      -0.47042491    -0.88201710     3.50058935    -0.00051936    -0.00031110    -2.51458122
O       3.41052853     2.64608320     1.78019536     0.00051936     0.00031110     2.51458122
