# total energy = -19959.01396978 eV

CRYSTAL
PRIMVEC
        7.60600008     0.00000000     0.00000000
        0.00000000     7.60600008     0.00000000
       -1.89786986    -1.89786986     4.85670466
PRIMCOORD
24 1
Ti      3.69037699     6.65301700     1.31172700    -1.67941461     1.37936959     0.75213743
Ti      3.72915500     3.03407798     1.23206302     0.44384173    -0.94913851     0.97493286
Ti     -0.08365398     6.60586402     1.15631299     2.57344999    -1.30525211    -0.34941588
Ti      0.12255798     2.66966800     1.10521902    -2.08841146     1.99528812    -0.24115568
Ti      5.79512320     2.89855923     3.60402082     0.07145535    -2.35447420    -1.78483374
Ti      5.81730324    -1.07212877     3.54525479    -1.66498995     1.78257862     0.38699693
Ti      1.89131024     2.95223924     3.74530983    -0.45816253     0.54771485    -1.78728246
Ti      1.77590425    -0.96027880     3.80310281     2.21670492    -0.40396776    -0.70692842
O       3.64352301     4.88207702     0.79586703     0.50100612    -1.57649306     0.82384501
O       3.70231798     1.02124700     0.82907602     0.00085823     0.38486369     1.05059119
O       0.22233398     4.63395501     0.58530301    -1.10975538     0.79428451     1.29357030
O       0.35747601     0.86448200     0.65626202    -1.25616691    -1.19519317     0.50684433
O       5.99621823     4.62526624     4.06878979    -0.99722510     2.74398387     0.22043361
O       5.73849224     0.85249725     3.76494982    -0.44280481    -0.83812081     0.85575575
O       1.60329324     4.80755923     4.22300183     0.22961502     0.34472284    -0.53745589
O       2.00236523     1.15216424     4.20701983    -0.24596699    -1.87371321    -1.04957741
O       3.70321023     3.10674920     3.19351379     1.26460322    -0.10555642     0.07224751
O       3.59303225    -1.25203279     3.25069880     1.97843325     0.81038065     0.72904429
O       0.08083124     2.93840824     3.03868579    -0.46345720    -0.93892249     1.60562495
O      -0.00283676    -0.93121178     3.24628679    -0.82733091     0.21298872    -1.38075670
O       5.59456899     6.53911599     1.56510998     2.10720854     0.03083525     0.30493398
O       5.87324701     2.98825499     1.62881498    -2.13639649    -0.45414595    -0.81610496
O       1.84507300     6.39579701     1.74231102    -1.81282792     1.21334080    -0.41468130
O       1.78425397     2.98459102     1.64501998     3.79573489    -0.24537358    -0.50876571
