# total energy = -39032.59714188 eV

CRYSTAL
PRIMVEC
        5.93200024     0.00000000     0.00000000
        0.00000000     9.29399984     0.00000000
        0.00000000     0.00000000     9.29399984
PRIMCOORD
46 1
Ti      4.44689101     7.32747600     6.90810800    -1.44795379    -1.56628475     0.50032940
Ti      4.49964998     6.60912000     2.56587698     1.13134572     0.35575391    -0.65561638
Ti      4.38457701     2.19970400     7.09703301    -0.49602512    -0.23637986    -1.04602414
Ti      4.47894301     2.51775497     2.07762000    -0.95568017    -0.99560428     0.87807679
Ti      1.47615401     6.88081500     7.11525401     0.86660555    -1.81368178    -0.32692283
Ti      1.42771398     7.06826302     2.05844902    -0.60243489    -0.42137671     0.60978156
Ti      1.46439199     2.48300301     6.84457001     0.20437321    -0.17923295    -0.57861850
Ti      1.49602600     2.08549400     2.60443902     0.62126694     0.37054058     1.31380643
Ti      2.94494897     4.65056901     4.45276298    -1.58223742    -0.48551805     2.36059548
Ti      2.94858601     4.69292901     9.00857999     0.71729742     1.57114362     0.04761608
Ti      2.91523498     9.20762599     4.62329601     0.68290454     0.48930631     0.22539507
Ti      2.86072099     9.25644101     0.20149101     2.06030029     0.69995276    -0.45744030
Ti      5.87103500     4.78261799     4.61299801     1.00110078    -0.66566605     1.84106173
Ti      5.88394502     4.66781902     9.16382202    -0.08353646     1.59760208    -0.24576464
Ti      5.92513401     9.06509602     4.85445598    -0.77853058     1.27778732    -1.31958062
Ti      0.04122402     0.04639101     0.00629499    -1.59517496     0.75012605    -0.61769414
O       4.65096600     5.81921299     5.45248300    -0.32408099    -1.00646950    -0.24376535
O       4.39927998     5.31176402     1.02292301    -0.04579496    -0.79977664    -0.60684536
O       4.38573998     0.76333898     5.76530099     0.92163695    -0.53529436    -1.00533616
O       4.42092598     1.05529601     0.81542298     0.40652087     0.05417573     0.51923525
O       1.64678902     5.59332500     5.56039801    -1.33156557     0.10363272     0.62544807
O       1.40115002     5.95129902     0.55941798     0.55452571    -2.19669608     0.18712007
O       1.56661401     1.05708802     5.43535998    -0.78779504    -0.85445426    -0.54549548
O       1.43835398     0.79226402     1.15134200     0.33769036    -1.16835933    -0.21700916
O       4.54872101     8.42660599     8.52770599    -0.79703739    -0.08817344    -1.39260255
O       4.51067502     7.93208800     4.13464802     0.72164773     2.31898087    -1.12748418
O       4.45186798     3.64091702     8.32879398    -0.12710485     1.21194803     2.30043730
O       4.35410502     4.15553502     3.33872299     1.48933417    -1.75354469     0.61886142
O       1.63808998     8.41716001     8.35456602    -1.08437165     0.04594640     1.07029871
O       1.43669300     8.46366099     3.67461799    -0.64042578     0.51440466    -0.11646896
O       1.48140298     4.00141299     8.09425198    -0.22139032    -0.27213826     1.30811967
O       1.48239000     3.54785702     4.00403400     0.31730124    -0.40565261    -1.50824181
O       3.17890803     6.10874502     7.84086699    -0.66848116     0.22151219    -0.11446890
O       2.93238001     6.14089402     3.36921800    -2.07492216     0.61971888    -1.42718801
O       2.80566201     1.52972400     8.02672399     0.73234198     0.04305879    -0.54293877
O       3.25783301     1.41577902     3.19051701     0.45601668     0.21589330    -0.08592116
O       5.70321802     6.11348502     7.84679103     0.98517536    -0.22461114     0.14924822
O       0.39809798     5.82678202     3.13106802    -1.38555258     1.14534641    -0.54234407
O       0.15219598     1.47249999     7.97603500    -0.57384807    -0.52781117    -0.06004891
O       2.78726500     7.86076898     6.02448000     0.30142082     0.35371785     0.75551740
O       3.02578000     7.86045100     1.47706801     0.16272981     0.14097364     0.14303206
O       3.08951501     3.27559300     6.10335302     0.04928729    -0.48517635    -0.18785258
O       0.14013402     7.94750198     6.19631100     1.07233194    -0.18284715     0.86299367
O       5.57981199     7.67824701     1.46076797     2.22472188     1.24576139     0.36113420
O       5.81142101     3.36370598     6.17792500     0.33694834    -0.92580908    -0.89386234
O       0.29619802     2.86617300     1.50384501    -0.75088144     2.44327525    -0.81257226
