# total energy = -4984.26671368 eV

CRYSTAL
PRIMVEC
        3.13457355     0.00000000     0.00000000
        2.31125056     4.33359408     0.00000000
       -0.00001487    -0.00006696     5.08241515
PRIMCOORD
6 1
Ti      2.72290437     2.16676345     2.54120768     0.00000000     0.00000000     0.00000000
Ti      0.00000000     0.00000000     0.00000000     0.00000000     0.00000000     0.00000000
O       2.01771245     0.84454057     0.99048791    -2.71911281     1.55469678     1.53308819
O       3.42809632     3.48898644     4.09192751     2.71911281    -1.55469678    -1.53308819
O       0.70518562     1.32219597     3.53169658     2.71903413    -1.55442578     1.53266036
O       1.60604973     3.01133112     1.55071878    -2.71903413     1.55442578    -1.53266036
