# total energy = -19930.84418858 eV

CRYSTAL
PRIMVEC
        5.93400000     0.00000000     0.00000000
        0.00000000     9.29699974     0.00000000
        0.00000000     0.00000000     4.64899994
PRIMCOORD
24 1
Ti      4.40047598     5.74924200     2.14747902     1.73403206     6.57356709     2.94658302
Ti      4.39806002     2.81770301     2.33752699     0.34185863    -4.28399810    -2.37530297
Ti      1.53223199     5.14147600     2.44656698    -2.89127728    13.28699992    -0.54734693
Ti      1.42495500     2.82634501     2.13386101    -0.30557290    -6.45436993    -2.43803894
Ti      2.75583399     4.46787898     0.07768899     3.86743810     4.22405872    -1.56944952
Ti      2.92434699     1.26538801     4.48495399     0.83097648    -6.26515595     2.50547180
Ti      0.08851098     4.13036502     4.60937198    -1.72752100     4.70100265     0.60831243
Ti      0.03259102     1.21685600     4.40302402    -1.09393795    -6.99630623    -0.52316029
O       4.52653700     5.39265300     0.49967599     0.41641834    -1.94200636    -2.11595518
O       4.44927898     1.43579298     0.92587498    -0.43858922     1.17982748     2.14027165
O       1.31958401     5.52791700     0.47691999    -0.10516330    -1.93951265     1.85475234
O       1.54927102     1.36764601     1.07467798    -0.59748577     1.18643934    -0.11702792
O       4.74212498     9.24458400     3.87427900     0.14957552     0.66530121     1.15009421
O       4.54018401     3.13081597     4.11334101    -1.47117215     0.71638803     0.32385576
O       1.58727801     9.20848199     4.02113701    -0.04389492     1.73422207     0.60103030
O       1.62974898     3.16806899     3.91024199    -0.08104737     0.66682228     1.87127734
O       3.04403699     5.95708298     3.74680401    -0.81029220    -1.29344329    -2.04868918
O       3.01019801     1.49368100     2.85105801     0.59487405     3.28000894    -5.44569699
O       0.00480398     5.60925699     3.51077598    -0.54182008     0.44679799    -0.00736107
O       5.91215599     1.54445900     2.63143199     0.05729114     3.16969109    -0.12839091
O       2.85890698     6.64379598     1.72252201    -0.01074593     0.35485531     0.86428693
O       2.96438200     4.28358998     1.88306603     3.97323543    -6.72947164     1.96544634
O       0.19353600     6.98961702     1.83820799    -1.06642045    -1.64611547     0.65696390
O       5.85987899     4.20567202     1.89420399    -0.78075947    -4.63560276    -0.17192665
