# total energy = -19517.18719044 eV

CRYSTAL
PRIMVEC
        5.93400000     0.00000000     0.00000000
        0.00000000     9.29699974     0.00000000
        0.00000000     0.00000000     4.64899994
PRIMCOORD
23 1
Ti      4.42155999     7.02401100     2.24531802    -0.90056341     0.25029364     0.71306693
Ti      4.51239501     2.38244398     2.31996799    -0.04124231    -2.19636440     0.44479201
Ti      1.32001201     6.97182899     2.11314700     0.98096518    -0.07878043     0.94450692
Ti      1.49099902     2.35690599     2.31683198    -0.29211445    -1.49634326     0.69807302
Ti      3.00017201     4.49725202     0.20249698     0.05852939     0.36393799    -0.03569464
Ti      3.04099602     0.09328098     4.63144401    -0.19712192     1.04007821     0.46735525
Ti      5.91532502     4.57039903     0.01677201     0.57147443     1.16645594    -0.45052815
Ti      0.06618399     9.20730002     4.54669400    -0.83204812     1.73262387     0.22661635
O       4.59611900     5.54333299     1.03350899    -1.60894708    -0.03459241    -0.57461786
O       4.45407602     0.97005202     0.95442901    -0.13480942    -0.28748878    -1.05137281
O       1.50565401     5.42327400     1.07616798     0.51791139     1.10104088    -0.23722369
O       1.42496098     0.87764502     0.84460102    -0.34942051     1.13096571     0.89387957
O       4.26649502     8.38372898     3.72536101     1.48513787    -0.91632968    -0.42989632
O       4.50038898     3.65141097     3.90976298    -0.97069233     0.43568028    -0.37430365
O       1.43111098     8.56682399     3.64868899     0.56923988    -1.85317137    -0.98807197
O       1.57386098     3.72100302     3.80316700     0.20163678     0.04994241    -0.05924441
O       3.08739301     1.36280599     3.12057200    -1.71092992     0.54525174     0.73911144
O       0.00842699     6.17157799     3.34449801     0.09364270    -0.18373701    -0.22402853
O       5.86946599     1.45453501     3.20259802     1.26543857    -0.38708898     0.40499106
O       2.91475602     7.98056698     1.38919802    -0.13533392    -1.93606017     0.98689620
O       3.01507798     3.27909800     1.54617602    -0.86610085     0.42097536    -0.40037902
O       5.80397602     7.76741100     1.35475001     0.72203443     1.56525553    -1.12671105
O       5.87966498     3.41105401     1.59068099     1.57331389    -0.43254456    -0.56721616
