# total energy = -19518.14936881 eV

CRYSTAL
PRIMVEC
        7.60600008     0.00000000     0.00000000
        0.00000000     7.60600008     0.00000000
       -1.89786986    -1.89786986     4.85670466
PRIMCOORD
23 1
Ti      3.69749099     6.76455402     1.18788598     1.36427207     0.39208335     0.15861681
Ti      3.89959002     2.96426902     1.20540698    -0.55676308    -0.82594894     1.21260572
Ti      0.01667898     6.58987398     1.19127102    -0.88604079    -0.14146086     0.81292681
Ti      0.06634200     2.71229101     1.18214599    -0.72500714     0.77612454    -0.01653091
Ti      5.72557222     2.72226521     3.66180682    -1.76535454    -0.59318560     0.26678548
Ti      5.64077320    -1.09777175     3.55800283     0.22622991     0.83031956     0.88220959
Ti      1.92501825     2.95291124     3.65398680     1.54984845    -1.37789660    -1.09314657
Ti      1.84626625    -0.84978378     3.62443881    -0.24882940     0.34666582     1.08184682
O       4.07683900     4.76431100     0.75114102    -1.16849072     1.94335362     1.01450189
O       3.89131099     0.99520402     0.71637100    -0.06795300    -1.07961844     0.35835304
O       0.08412998     4.71480599     0.94539299     0.57080028    -0.15788276    -0.35472392
O      -0.01249499     0.96835002     0.66293802     0.02158596    -1.77894874     0.67027759
O       5.51616323     4.58469522     4.20126080     0.61509012     1.22368641    -1.64553980
O       5.43098120     0.88224421     4.07525682     1.09887242     1.04680704    -0.47339246
O       1.92898522     4.74167920     3.93723982    -0.78145881     1.54087864     0.97220646
O       1.88278921     1.06138822     4.12329082    -0.76047629    -1.39531815    -0.74691114
O       3.79588023     2.79139724     3.18526683    -0.21624374     0.49293619    -0.18059332
O       3.77452623    -0.94595778     3.17513880    -0.18558924    -0.47058379    -0.70072640
O      -0.04565477    -1.00831677     3.35607080     0.60270331    -0.12609594    -0.34106005
O       5.78325503     6.77904299     1.66913099    -0.93455804    -0.30059447    -0.34676430
O       5.67492398     2.79703801     1.71871400     2.09087817    -0.12103755    -0.08866375
O       1.86926498    -0.58649598     1.73453502     0.17963173    -0.80250741    -1.51827195
O       1.85158501     2.68187702     1.68686499    -0.02314765     0.57822409     0.07599412
