# total energy = -19518.07554551 eV

CRYSTAL
PRIMVEC
        7.60600008     0.00000000     0.00000000
        0.00000000     7.60600008     0.00000000
       -1.89786986    -1.89786986     4.85670466
PRIMCOORD
23 1
Ti      3.84926500     6.61435399     1.19982702    -1.72503834     0.27426250     1.40001530
Ti      3.78766099     2.70323202     1.18161798     0.26474248    -0.12718558     0.77166034
Ti     -0.11823598     6.69977198     1.13903800     1.85085738     0.52051617    -0.50949282
Ti      0.00257101     2.90247202     1.19055102    -1.66756182    -0.80085214     0.15301412
Ti      5.70059923     2.87022121     3.70105780    -1.24540864     0.47973846    -1.09795762
Ti      5.83741822    -0.83166476     3.59616783    -1.16360202    -0.70845360     0.77276051
Ti      2.01818720     2.79875725     3.73791082    -0.27436998    -0.31739278    -0.46031942
Ti      1.84948423    -1.01388477     3.60561984     2.17767916     0.77696889    -0.28269933
O       3.87370701     4.72645599     0.75347099    -0.06487770    -0.63467577     1.45099438
O       3.60848798     0.87996001     0.94164202     0.16341706     1.31055862    -0.96766023
O       7.23852501     4.78747198     0.70666801     0.61152374     0.46456175     0.75301443
O       0.15942602     0.94115899     0.71178499    -0.50065259    -0.42512564     0.09386356
O       5.69867721     4.86205623     3.85680080     0.36200786    -1.28455704     0.60497077
O      -1.55648376     0.97268721     4.22374781     0.13144101     1.27710727    -2.09908874
O       1.94513323     4.77105521     4.09177683    -0.16347414    -0.72555658    -0.10231400
O       1.60531221     0.90273421     4.04078880     0.49318122     0.79794653     1.11160298
O       3.76297424     2.79277321     3.20594882     0.98740271     0.03372286    -0.27922988
O       3.73603324    -0.62908179     3.17273083     1.25862823    -0.86644409     0.59971415
O       0.11258225    -0.94409778     3.07835583    -3.78355737    -0.13430419     0.51476744
O       5.69405701     6.89380402     1.61454498     0.27200482    -0.24505168    -0.06424392
O       5.77327998     2.55822000     1.71828298    -0.22982303     0.43597544    -0.27447385
O       1.86075798     6.54135499     1.73149902     0.73195169    -0.56160550    -2.13682072
O       1.66324802     2.81664101     1.83073902     1.51352800     0.45984583     0.04792230
