# total energy = -19516.33063882 eV

CRYSTAL
PRIMVEC
        5.17600016     0.00000000     0.00000000
        0.00000000     5.50899976     0.00000000
        0.00000000     0.00000000     9.26300011
PRIMCOORD
23 1
Ti      1.98690902     3.24507899     3.43284003    -0.95219118    -1.92196280     2.54492642
Ti      3.47151801     2.27703198     5.90533997    -1.09616119     0.01404054    -2.51608480
Ti      4.17999200     2.21564498     1.54155498     0.97678431    -0.71101416    -1.85655340
Ti      0.72263101     3.49255101     7.76159899     0.10307171     1.02690721     1.81212009
Ti      1.97730101     5.50842402     1.43693500    -0.24706999     2.90399165    -0.68506503
Ti      3.18148401     5.21899200     7.90373801    -0.86712235     0.01257861     2.55947733
Ti      0.84430198     0.49983098     5.89225702    -0.85982375     0.89221015    -2.95817176
Ti      4.57781301     4.88953000     3.21924202     0.68339947    -0.25632648     2.26598065
O       1.78220098     1.92564500     4.85843301     0.02990271     0.55608843    -0.17873802
O       3.68685998     3.54441599     4.35010698    -0.30826407     0.02235832     0.96110906
O       4.97331300     2.79478302     9.18364098    -0.49057901     0.67086020     0.96004565
O       3.29683899     0.87589900     0.28526099     0.47027731    -0.80916889    -0.20988489
O       1.63660299     4.68324798     9.19950000    -0.71669887    -1.01744349    -2.51825378
O       4.36441800     0.86981198     4.98622799    -0.30412896    -0.85965586    -1.55022023
O       1.12603399     4.78551201     4.33502601    -0.21799595    -0.09948759     0.41036904
O       0.31167799     3.39417802     2.41617898     0.09678433    -0.04168583     0.12512561
O       5.08825098     2.20131301     6.82337101     0.31391253    -0.41970472    -0.73977170
O       2.51264000     1.70789603     2.35113299     0.70530837    -0.20934084     0.51220739
O       2.58973499     3.56929801     7.07035100    -0.61133914     0.31325484     0.49209750
O       0.22404301     0.57949402     2.05043399    -1.14772442     0.89686668    -0.44587111
O       4.82879998     5.07703301     7.09315203     1.30440905    -1.49577607     0.89432926
O       2.27640898     0.98605799     7.08603697     0.64292978     0.49178948    -0.52573063
O       2.94358899     4.09225499     1.99504602     2.49231931     0.04062113     0.64655761
