# total energy = -19961.58393294 eV

CRYSTAL
PRIMVEC
        7.60600008     0.00000000     0.00000000
        0.00000000     7.60600008     0.00000000
       -1.89786986    -1.89786986     4.85670466
PRIMCOORD
24 1
Ti      3.76533199     6.62557000     1.24352600     0.18585972    -1.51549027     0.00158200
Ti      3.75815698     2.76942802     1.19453800     0.56946305     1.34438869     0.81379739
Ti      0.04181702     6.70635399     1.27189599     0.02421594    -0.00991906    -0.66774454
Ti      0.02298698     2.91908401     1.14523302    -0.70231869     0.06083901     0.24584975
Ti      5.70527721     2.97648524     3.62302580    -0.18030253     0.15424156    -0.57790167
Ti      5.72667423    -0.88230580     3.62981583    -0.73258907    -0.44961798    -0.34467245
Ti      1.81566324     2.76723723     3.64796280     0.58068386     0.56704004     0.39431893
Ti      1.86403925    -1.03509880     3.72579684     0.95080664    -0.50153114    -1.39638079
O       3.74145202     4.66869799     0.70886801    -0.16475944     0.18756359     0.90782010
O       3.76406598     0.86275403     0.77208400    -0.02141498     0.84496123     1.12893196
O       0.14112300     4.81626499     0.78010199    -0.52976212    -0.22583113    -0.51443011
O       0.11745502     0.96432801     0.80353798    -0.59206614     0.53619914    -0.49965192
O       5.90428924     4.87300925     4.00309582    -0.50592696    -1.10236500     0.55866261
O       5.74706523     1.03580022     3.90487682    -0.34929298    -0.58880804     1.18350751
O       1.77123923     4.71230521     4.10173383     0.13725402    -0.14031132    -0.19647041
O       1.95937725     0.90412124     4.09512679    -0.11369474    -0.56762317    -0.53038458
O       3.80378322     2.86022923     3.15584082    -0.12605686     0.14774490     0.41475355
O       3.77005622    -1.19534976     3.21639484     0.85218603     0.90392410     0.49037409
O       0.00080620     2.89985122     3.17342279    -0.74222351    -0.25048133     0.01380709
O       0.02319220    -0.84479375     3.21789680    -0.39974164     0.09034757    -0.24793157
O       5.68029301     6.58914800     1.56996100     0.75659521     0.34925107     0.55857931
O       5.69377898     2.96795601     1.59755998     0.26238477    -0.42074988    -0.13839328
O       1.93120401     6.51817200     1.70626701    -0.78514989     0.54742278    -0.33727769
O       1.80229601     2.77975100     1.69742498     1.62584951     0.03880413    -1.26074630
