# total energy = -19910.58822642 eV

CRYSTAL
PRIMVEC
        8.07934990     0.00000000     0.00000000
        0.00002646     3.68523054     0.00000000
        0.00000000     0.00000000    12.29613907
PRIMCOORD
24 1
Ti      2.92839129     2.18386422     4.56177990     0.02268202    -0.09691263     2.50330487
Ti      5.15098471     1.50136638     7.73435935    -0.02268202     0.09691263    -2.50330487
Ti      6.96792796     1.50136763     1.58624055     0.02334588     0.09673368    -2.50369851
Ti      1.11144804     2.18386309    10.70989882    -0.02334588    -0.09673368     2.50369851
Ti      2.92837824     0.34124901     1.58628987     0.02268202    -0.09691263    -2.50330487
Ti      5.15099776     3.34398165    10.70984949    -0.02268202     0.09691263     2.50330487
Ti      1.11143499     0.34124764     7.73431002    -0.02334588    -0.09673368    -2.50369851
Ti      6.96794101     3.34398302     4.56182922     0.02334588     0.09673368     2.50369851
O       2.55717448     1.29763231     6.27462569     2.37986436     0.63877385    -1.56453125
O       5.52220152     2.38759823     6.02151355    -2.37986436    -0.63877385     1.56453125
O       1.48256615     1.29764718     0.12659563    -2.37943910     0.63887721    -1.56597004
O       6.59680991     2.38758343    12.16954326     2.37943910    -0.63887721     1.56597004
O       5.52218853     0.54498296     0.12655575    -2.37986436    -0.63877385    -1.56453125
O       2.55718747     3.14024764    12.16958315     2.37986436     0.63877385     1.56453125
O       6.59679691     0.54496810     6.27466558     2.37943910    -0.63887721    -1.56597004
O       1.48257903     3.14026251     6.02147367    -2.37943910     0.63887721     1.56597004
O       0.29355744     2.24156611     3.32149395    -1.55731056     0.41277868     0.19428805
O       7.78581856     1.44366444     8.97464529     1.55731056    -0.41277868    -0.19428805
O       4.33324266     1.44363010     2.82661476    -1.55796542    -0.41289592    -0.19416541
O       3.74613334     2.24160050     9.46952431     1.55796542     0.41289592     0.19416541
O       0.29354445     0.39895083     2.82657552    -1.55731056     0.41277868    -0.19428805
O       7.78583155     3.28627977     9.46956355     1.55731056    -0.41277868     0.19428805
O       3.74612034     0.39898517     8.97468447     1.55796542     0.41289592    -0.19416541
O       4.33325566     3.28624544     3.32145472    -1.55796542    -0.41289592     0.19416541
