# total energy = -19960.18281557 eV

CRYSTAL
PRIMVEC
        5.93400000     0.00000000     0.00000000
        0.00000000     9.29699974     0.00000000
        0.00000000     0.00000000     4.64899994
PRIMCOORD
24 1
Ti      4.47056497     7.05315702     2.47017898    -0.43580498    -2.12773187    -0.69330594
Ti      4.46983302     2.38217902     2.42623202     0.42798316    -1.13265261    -1.09515306
Ti      1.46994999     6.96914601     2.21092901     0.00459328    -0.82507837     0.65657977
Ti      1.53268300     2.34007202     2.26131399     0.05066335    -0.74740814    -0.24917650
Ti      2.94076498     4.53750500     0.02964297    -0.23451606     2.16766188    -0.71703543
Ti      2.97717597     9.20802901     4.59358397     0.52942299     1.45491223     1.87660159
Ti      5.85275600     4.66366302     0.09621898     0.12585966     1.54082927    -0.20600689
Ti      0.04139801     9.27680100     4.53818398    -0.75140852     1.35415837     2.14284893
O       4.41734001     5.64491201     0.94578500     0.55918738    -1.03521933    -0.72707276
O       4.39664701     0.98327700     0.78520098    -0.12455637    -0.72523905     0.20898577
O       1.50864698     5.49374602     0.95214900    -0.32126203     0.64671059     0.22906455
O       1.52240501     0.98046199     0.80720100    -0.17943196     0.19062269     0.47298417
O       4.46091802     8.47705600     3.71181598    -0.27339450    -0.63073838     0.24146627
O       4.47014798     3.79840398     3.70459101    -0.07117279    -0.49232581    -0.11098968
O       1.39756601     8.30178800     3.85403099     1.13648021    -0.47401081    -0.74784651
O       1.50157299     3.70581802     3.83771597    -0.36194255    -0.71411311    -1.51508429
O       2.96581099     6.12067199     3.38772603    -0.24499331     0.34601816    -1.14367725
O       3.03311699     1.41815899     3.11982703    -1.33055152    -0.04786676     0.18923146
O       5.91467000     5.99979801     3.11599102     0.28778394     0.28707740     0.97804209
O       0.03519500     1.26540298     3.17187198     0.25799076     2.09462196    -1.39491294
O       2.96504199     7.91672101     1.50366102    -0.37463172     0.39526921    -0.79358877
O       3.05009602     3.17268898     1.30288498    -0.65374770    -0.32399923     1.63140464
O       5.86395001     7.96457800     1.52859299     0.97571164     0.02251902    -0.61329883
O       5.83256403     3.29754200     1.34590100     1.00173790    -1.22401679     1.37993909
