# total energy = -19515.80097553 eV

CRYSTAL
PRIMVEC
        5.17600016     0.00000000     0.00000000
        0.00000000     5.50899976     0.00000000
        0.00000000     0.00000000     9.26300011
PRIMCOORD
23 1
Ti      1.84864802     3.15326002     3.36573098     0.90861920     0.81081080     2.83180559
Ti      3.34673199     2.28239397     5.88330800     0.15404102     1.35145048    -3.82412271
Ti      4.34938698     2.11645801     1.58215600     1.42912714    -0.44764877    -1.88085831
Ti      0.83848802     3.39489500     7.74699799     0.70006383     0.10525252     2.65711243
Ti      2.06692702     0.28860401     1.39317198    -1.63602980    -3.50053434    -1.61507170
Ti      3.25555797     5.25755500     7.83572900    -0.71585118    -0.87902887     1.84947438
Ti      0.66118602     0.60380500     5.93055897    -0.08030175    -0.56366136    -4.02587570
Ti      4.54280201     4.91819098     3.25995099    -0.39322929     0.51463811     3.58506067
O       1.72817701     2.02922399     4.81200199    -0.82549463    -1.03357228     0.42654617
O       3.51909602     3.71934802     4.54713602    -0.52377942    -0.46412774    -0.42694264
O       0.10010398     2.47417400     0.11554098     0.81983460     1.66522263    -1.65158627
O       3.35866700     0.67895701     0.16927999     2.08241924     2.24297132     0.22354516
O       1.73450697     4.70492001     9.05044299    -0.71241156    -1.55229871    -1.08275596
O       4.24377098     0.89514401     4.80677102     0.46145251    -0.37187499    -0.09670977
O       0.90753501     4.73938400     4.45347303     0.17144225     0.23515550    -0.20530935
O       0.03456401     3.20022403     2.79659000     1.00992738    -0.47393471    -0.92579700
O       5.01369700     2.08781799     6.77003100    -0.10798046     0.97659765     1.11610704
O       2.81754902     1.48855602     2.48680499    -0.58271889     1.77629639     1.52826891
O       2.48729601     3.79963500     6.83288599    -0.29836789    -1.00207369     1.13143905
O       0.27910200     0.63727297     1.96968202    -0.66966798    -0.54097368     0.49457193
O       5.08291698     4.90043598     7.23844801    -1.02999665    -0.18556327     0.05947170
O       2.35789799     0.97063998     6.92258301    -0.78242658     0.90607329     0.07884471
O       2.89693900     4.23131198     2.13614801     0.62132916     0.43082372    -0.24721860
