# total energy = -19903.32428967 eV

CRYSTAL
PRIMVEC
        8.18027666     0.00000000     0.00000000
        0.00002576     3.30238522     0.00000000
        0.00000000     0.00000000    12.66102872
PRIMCOORD
24 1
Ti      2.96497222     1.95699038     4.69715137    -0.09134207     0.08884065     2.03296354
Ti      5.21533043     1.34539472     7.96387746     0.09134207    -0.08884065    -2.03296354
Ti      7.05497093     1.34539585     1.63331246    -0.09121146    -0.08889361    -2.03302293
Ti      1.12533171     1.95698943    11.02771649     0.09121146     0.08889361     2.03302293
Ti      2.96495945     0.30579783     1.63336322    -0.09134207     0.08884065    -2.03296354
Ti      5.21534319     2.99658739    11.02766573     0.09134207    -0.08884065     2.03296354
Ti      1.12531895     0.30579664     7.96382670     0.09121146     0.08889361    -2.03302293
Ti      7.05498370     2.99658857     4.69720213    -0.09121146    -0.08889361     2.03302293
O       2.58911839     1.16282595     6.46082603     3.08438391     0.29994989    -1.07035913
O       5.59118431     2.13955915     6.20020281    -3.08438391    -0.29994989     1.07035913
O       1.50108609     1.16283925     0.13035239    -3.08418800     0.29989718    -1.07107287
O       6.67921667     2.13954585    12.53067609     3.08418800    -0.29989718     1.07107287
O       5.59117155     0.48836654     0.13031132    -3.08438391    -0.29994989    -1.07035913
O       2.58913109     2.81401856    12.53071716     3.08438391     0.29994989     1.07035913
O       6.67920391     0.48835324     6.46086715     3.08418800    -0.29989718    -1.07107287
O       1.50109868     2.81403192     6.20016168    -3.08418800     0.29989718     1.07107287
O       0.29722406     2.00869788     3.42005971    -1.05131059     0.28555916     0.71639857
O       7.88307859     1.29368722     9.24096913     1.05131059    -0.28555916    -0.71639857
O       4.38737316     1.29365652     2.91049491    -1.05119952    -0.28545992    -0.71662225
O       3.79292954     2.00872864     9.75053369     1.05119952     0.28545992     0.71662225
O       0.29721130     0.35750527     2.91045448    -1.05131059     0.28555916    -0.71639857
O       7.88309135     2.94487983     9.75057412     1.05131059    -0.28555916     0.71639857
O       3.79291678     0.35753597     9.24100944     1.05119952     0.28545992    -0.71662225
O       4.38738592     2.94484913     3.42001933    -1.05119952    -0.28545992     0.71662225
