# total energy = -39036.61380095 eV

CRYSTAL
PRIMVEC
        7.60600008     0.00000000     0.00000000
        0.00000000     7.60600008     0.00000000
       -3.79573973    -3.79573973     9.71340985
PRIMCOORD
46 1
Ti      1.87225943     4.76425946     6.15352860     0.26076678     0.64176044     0.71619314
Ti      3.80351202     6.67879798     1.22964097     0.14701419     0.96579875     0.38575483
Ti      1.79621047     0.83334447     6.11971963     2.64276207    -0.71609158    -0.40944165
Ti      3.67912298     2.76937997     1.21630200     1.58864435     0.44731967    -0.78690673
Ti     -1.96728453     4.58982242     5.97564562     0.36218244     1.61337400     1.55535472
Ti      0.01330399     6.66712000     1.18872001     0.09871600     0.46416194    -0.33492642
Ti     -1.79460955     0.97280347     6.02234662    -1.33684507     0.06200166     0.39548312
Ti      0.02908099     2.94227499     1.11990401    -1.42474264    -0.39521058     1.08666096
Ti      3.86990445     1.01896847     8.45517463     0.37330246     0.47858223    -0.89172910
Ti      5.60448699     2.87522902     3.45871902     1.72570991    -0.50975224    -0.14401243
Ti      3.92501445    -2.79416553     8.49825664    -0.51369657    -0.46989113     1.02228051
Ti      5.59111701    -0.95641999     3.73679002    -0.36769489     0.88811824    -0.74292722
Ti      0.09367945     0.98624643     8.38641360    -0.67935024     0.04517584     3.91457672
Ti      1.92618598     2.72847902     3.52586103    -1.86216946    -0.24420835     0.91971120
Ti      0.00916646    -2.80837256     8.49973564     0.14738854    -0.56759669     0.25822036
Ti      1.85769700    -1.08456301     3.64940502     0.68926982     0.30417756     1.95353776
O       1.60631643    -1.04185253     5.77183363     0.53680257     0.50513711    -0.89714410
O       3.78675901     1.01299702     1.03183298    -0.29586672    -1.15423780    -1.40831585
O      -1.98945256     2.90874843     5.50621264     0.42343154    -2.22107657     0.56831634
O      -0.22321802     4.79633998     0.65813399     0.45711994     0.37727148     1.25657751
O      -1.62620053    -0.95699854     5.68408261    -0.54507921     0.72019043    -0.13627469
O       0.18365001     0.95745701     0.91403702    -0.60929537     0.08568127    -0.71243650
O       3.88432845     2.85644847     8.85052565    -0.60323039     0.52885478     0.98497225
O       5.49753498     4.71740499     4.04917298     0.14079263     1.18278271    -0.34065638
O       4.07696743    -0.89130155     8.93221665     0.01889813    -0.57066479    -0.46850556
O       5.65918799     0.98470499     3.95225401     0.23322974    -0.73445517     1.14829058
O       0.15292947     2.89797147     9.04158663     0.13752193    -0.71893548    -0.01331241
O       1.98948003     4.45496102     4.28885000     0.05042347     0.77163694    -0.47749466
O      -0.16377755    -0.91808258     8.93902261     0.15937992     0.23606747    -0.03404168
O       1.89437100     0.93924300     4.12297299    -0.29188794    -0.01191887     0.15510880
O       1.92884044     0.81320446     8.18329061     0.21561665    -0.10295035    -0.51697833
O       3.74439599     2.73073199     3.20157401     0.03986703     0.21985871    -0.19934490
O       2.03680445    -2.80956956     8.17293360    -2.13197496     0.08961198     0.19096593
O       3.66339202    -0.88260600     3.33365099     1.99367527    -0.67749750     0.01599612
O      -1.77683957     1.18568947     8.00562961    -1.89906815    -0.76602268    -0.08251367
O      -0.11784100     2.87963099     3.17270898     0.90716884    -0.03120498    -0.24016658
O      -1.92504957    -3.12143657     8.11396061     2.05633719     0.80201325    -0.48927649
O       0.18180101    -1.03983102     3.14713998    -2.96476844    -0.23275177     0.07269206
O       3.78915544     4.75229444     6.58728064     0.71305999     0.06011756    -1.55974129
O       5.66204100     6.80594801     1.85677401     0.67361025    -0.84944472    -1.21277850
O       3.72156443     1.17798243     6.50467364     0.23677375    -0.58109576    -0.62755252
O       5.63780299     3.02715301     1.49451699    -0.56605788    -0.11309721     0.26495614
O       0.04727347     4.55646843     6.57466564    -0.59295703    -0.25697466     0.15271947
O       1.95922601     6.51049898     1.52237601    -0.24198178    -0.55372892     0.27743679
O       0.06393144     1.27613047     6.63745263    -0.01604009     0.64415028    -3.97607959
O       1.87146498     3.11093002     1.65361498    -0.08675908     0.34496350    -0.59324808
