# total energy = -19518.10679100 eV

CRYSTAL
PRIMVEC
        7.60600008     0.00000000     0.00000000
        0.00000000     7.60600008     0.00000000
       -1.89786986    -1.89786986     4.85670466
PRIMCOORD
23 1
Ti      3.80648499     6.58037001     1.22464602     1.13908834    -1.58159181    -0.07741055
Ti      3.87023799     2.74132099     1.26934599     0.74923697     1.20234110    -1.67167713
Ti      0.08400498     6.87299402     1.24567600    -2.04330221    -1.12796986     0.09352134
Ti     -0.03897798     2.89887499     1.17173099    -0.21153733     1.62185633    -0.70729557
Ti      5.63664224     2.90251721     3.67866281    -0.33790453    -0.26310777     0.58344883
Ti      5.63763021    -1.00948779     3.59750279     0.37320476     1.17296058    -0.30926732
Ti      2.05840224     2.74474725     3.57422481    -1.19649672    -0.25336020     1.85755099
Ti      1.86599720    -1.09121276     3.68626582    -0.02254087     0.30692838    -0.01480699
O       4.14292700     4.72226300     0.71906002    -1.13765084     0.16973401     0.29529799
O       4.05769501     0.87736202     0.85538999    -1.15065857     0.18857943    -1.11358247
O      -0.27323199     4.87189798     0.79552698     1.30891080     0.03076506     0.04984317
O       7.30177698     1.09273901     0.70697901     1.01149678    -1.63063794     0.68966114
O       5.67332120     4.81955123     4.10268381     1.31362209    -0.56347701    -0.05624753
O       5.67976521     1.03979424     4.08962281     0.13724194     0.33220825    -0.97510898
O       1.66147623     4.59183324     3.95540579    -0.35114135     1.58806791     0.75827414
O       1.84364523     0.89388621     3.98981480     0.32203028    -0.17598385     0.28999843
O       3.80298321     2.98690622     3.11139083     0.79291308    -0.27800783     0.81903036
O       3.79115023     6.21713920     3.20492582    -1.39130851     1.26224628    -0.67538509
O      -0.01296077    -0.75333276     3.27067281     0.64417831    -0.94369805    -0.29573431
O       5.69550802     6.78030498     1.71890900    -0.24871653    -0.17862283    -0.30923235
O       5.74472801     2.89844202     1.60584001     0.01942418    -0.13429211     1.02246434
O       1.90094603     6.77922498     1.55092798     0.31482630    -0.17597588     0.67492743
O       1.79151799     2.96975199     1.71362500    -0.03491662    -0.56896194    -0.92827014
