# total energy = -39027.94498432 eV

CRYSTAL
PRIMVEC
        5.93200024     0.00000000     0.00000000
        0.00000000     9.29399984     0.00000000
        0.00000000     0.00000000     9.29399984
PRIMCOORD
46 1
Ti      4.42984399     6.99109199     6.80838503    -0.27395320     0.52504440     0.21902233
Ti      4.39380702     6.77545099     2.33675201     1.76261811     0.03497164     3.53819356
Ti      4.37321499     2.38046502     7.41595200     2.43240488    -0.43725894    -2.75657919
Ti      4.45485899     2.42573899     2.04742901     0.45848263     0.99781208     0.80456173
Ti      1.51608398     6.86793001     7.04001300    -1.47096466     1.15286174     0.08428542
Ti      1.41406798     7.12144602     2.07263801    -0.94279945    -0.46558119     1.71912120
Ti      1.55789602     2.83139600     6.89473802    -2.01736928    -1.73141931     1.31531027
Ti      1.37224398     1.60572301     2.39743700     0.71162531     1.95774820    -0.90437379
Ti      3.01076799     4.61794301     4.55133102     0.38948988    -0.38249442    -1.71091449
Ti      2.97656599     4.97331702     0.03741500    -1.17541418    -2.08196878     0.93804754
Ti      2.95083702     0.28591002     4.82619701     2.54195936     0.64308970     1.05961320
Ti      2.93003200     9.01670800     9.28571901    -0.19888982     0.07217938    -1.53179133
Ti      0.14627401     4.58148000     4.57940001    -1.88149517    -1.73444370    -2.01588087
Ti      5.92865103     4.55990602     0.21017301     1.61977965    -0.42236736    -0.76432138
Ti      0.00289301     9.09541502     4.76614899    -1.12499689     0.38609756     0.63835090
Ti      5.90982602     0.19133203     9.28144802     2.04051384    -1.13402429    -3.48747519
O       4.38901601     5.58139798     5.60351801    -0.28178016     0.25352115    -0.75522121
O       4.49208799     5.55497299     1.00711802    -0.17925738    -2.94339871    -0.78692138
O       4.46512001     0.97859601     5.78512598    -1.59073157    -0.78972157    -1.49714287
O       4.61721100     0.80264499     0.99375598    -2.08859915     0.06349419     0.50739454
O       1.42002201     5.47784101     5.32184998     2.50750991     1.96923949     2.64351515
O       1.47733599     5.63783601     0.96013100     0.43833211    -1.26041720    -0.42200817
O       1.11467499     0.99318198     5.51853601     3.43553889     1.40991585    -0.62343953
O       1.73645599     1.14520000     0.34908199    -0.86708532    -1.30718199     4.25703210
O       4.32592898     8.61118100     8.16801098     0.81199607    -0.42155103     0.39295881
O       4.39968999     8.47668902     4.07015798    -1.91473517    -1.09356951    -2.02888011
O       4.44156299     3.46434401     9.02490400    -1.67727288     0.63999692    -0.02475151
O       4.40914401     3.93082201     3.27486802    -0.68245176    -0.41761287     1.39946483
O       1.26445602     8.37795100     8.15133698     1.47027766    -0.48693318     2.36923619
O       1.24998800     8.71855498     3.32699701     0.70884415     1.21354597    -0.07999836
O       1.64007498     3.66613999     8.75418300     0.98911069     0.92003438    -1.94621089
O       1.50881499     3.52174800     3.75970800     0.21676130    -0.13981947     0.28944230
O       3.04074302     6.14013502     8.04416398     0.28592118     0.76798649    -2.04280547
O       2.84324899     6.12574098     3.15582097    -0.49716772    -0.24183600     1.22733378
O       2.87870699     1.58577102     7.80314999    -0.55270511    -0.74612567    -0.46964688
O       3.31860299     1.50919801     3.24912699    -1.98363973    -0.83384275    -0.14085922
O       0.09781302     5.70122001     8.03177800    -0.32260158     1.41262528    -1.55536604
O       0.13111800     5.89603402     3.14449298    -0.72799630     1.85517349    -0.16645894
O       0.16246800     1.65536502     7.75713999    -1.10212255    -0.87273018     1.69258252
O       2.73859699     7.97246898     6.08516901     1.07162565    -0.96238638    -0.40406032
O       3.17362102     7.49608198     1.13811199    -2.81072202     3.14731220    -0.46537396
O       3.21357803     3.30714900     6.08360698    -1.43274982     0.92337039    -0.18461479
O       0.03563998     7.89365502     6.17328999    -0.16303577    -1.69639470    -0.37314588
O       5.63607099     7.54946898     1.26625602     2.85791386     3.22773788    -0.80967000
O       5.82047899     3.46593101     6.15479598     1.14325327    -0.16307434     0.23002177
O       0.29576002     2.93005300     1.32329000     0.06657823    -0.80760411     2.62242335
