# total energy = -19072.24917558 eV

CRYSTAL
PRIMVEC
        5.93400000     0.00000000     0.00000000
        0.00000000     9.29699974     0.00000000
        0.00000000     0.00000000     4.64899994
PRIMCOORD
22 1
Ti      4.37648398     7.17682098     2.36346001    -0.24209773    -1.14473860     1.25884471
Ti      4.45893900     2.38524799     2.22484002     1.00109307    -1.58551120    -0.68491463
Ti      1.51219099     7.25180201     2.59345002    -0.19439141    -1.11640812     0.83087158
Ti      1.67556102     2.30852898     2.21797098    -1.17007812     0.85418147     0.26402771
Ti      3.04974401     4.41571798     4.46582000    -1.72687462     1.90629038     1.03859982
Ti      3.02447701     9.20774802     0.06126301     0.18647678     1.25825747     0.80244211
Ti      5.73294599     4.54974201     4.42544801     0.74979207     0.34288013    -0.44891709
Ti      0.00448203     0.04897699     0.29541500    -0.69306323     0.32288414     1.61075688
O       4.37945901     5.34105499     0.80012801     0.61950445     0.46559225     0.93762048
O       4.23766200     0.63546398     1.44588201     2.46063277    -0.16035925    -2.14229203
O       1.67409298     0.74268900     1.20820802    -2.27891587     0.14166681    -0.78143310
O       4.47323600     8.44154498     3.91597002     1.39978364     0.23357555    -1.67428989
O       4.29455702     4.00119200     3.34489299     2.44232085    -2.02911357    -1.43415493
O       1.43708602     8.39010498     4.05013201    -0.71575553     0.23523623    -2.25372471
O       1.57634097     4.01173798     3.44257302    -1.76976810    -0.81765327     0.11360552
O       3.03599101     6.12152301     3.37447199    -1.46724556     1.66308270    -1.32692832
O       2.98237101     1.49072697     3.16963398    -0.50446143    -0.14566385     2.94900140
O       5.83213799     6.27626899     3.37267998     1.30745581    -0.97120655    -0.60737295
O       2.88255998     7.67467999     1.22333900    -0.46895705    -0.81046421     1.34711252
O       3.07381602     2.94354501     1.06652198    -0.82248078     1.36440422    -0.42181046
O       5.87803199     7.78724398     1.36439300     1.15718583    -0.10171339     0.67591036
O       5.85724501     3.07902302     1.09700201     0.72984416     0.09478067    -0.05295446
