# total energy = -4895.45292682 eV

CRYSTAL
PRIMVEC
        5.34912816     0.00000000     0.00000000
       -0.00000694     2.02897937     0.00000000
       -2.67459615    -1.01458599     5.90351478
PRIMCOORD
6 1
Ti     -0.00022856     1.52179195     1.47587844    -0.05247341    -0.04082605    95.44857053
Ti      2.67475368    -0.50739883     4.42763588     0.05247341     0.04082605   -95.44857053
O       0.00005679     0.50722869     0.96163424     0.05120431     0.04205709   -89.21761566
O       2.67446818     0.50716437     4.94188013    -0.05120431    -0.04205709    89.21761566
O      -0.00002319    -0.50728458     3.91339163    -0.00099965    -0.00008048    -0.29087621
O       2.67454806     1.52167760     1.99012274     0.00099965     0.00008048     0.29087621
