# total energy = -4989.65411146 eV

CRYSTAL
PRIMVEC
        3.68834166     0.00000000     0.00000000
        0.73035702     3.61530674     0.00000000
       -2.20938294    -1.80768086     4.73109550
PRIMCOORD
6 1
Ti      0.54764062     2.71161831     1.18277400     0.00108192    -0.00108192     0.00000000
Ti      1.66167512    -0.90399243     3.54832165    -0.00108192     0.00108192     0.00000000
O       0.18262790     0.90382140     0.77065685    -0.00009642     0.00040623     0.08694446
O       2.02668773     0.90380439     3.96043885     0.00009642    -0.00040623    -0.08694446
O      -0.18260369    -0.90380160     3.13620450     0.00040623    -0.00009642     0.08694446
O       2.39191921     2.71142729     1.59489115    -0.00040623     0.00009642    -0.08694446
