# total energy = -19068.04256423 eV

CRYSTAL
PRIMVEC
        5.17600016     0.00000000     0.00000000
        0.00000000     5.50899976     0.00000000
        0.00000000     0.00000000     9.26300011
PRIMCOORD
22 1
Ti      1.89625402     3.39082801     2.82571603     1.49318851    -0.97011255     3.19554843
Ti      3.43315700     2.50033700     5.83067799     1.49513715    -0.87253503    -2.22883616
Ti      4.45752599     2.33498398     1.39934002    -2.07054434    -1.29570843     0.46500809
Ti      1.01119698     2.04167003     7.92913402     0.42034621     2.84503109     0.70442416
Ti      1.77255101     0.80336700     1.33144499    -1.90876918    -1.63651471     0.70751026
Ti      3.34210301     0.07482000     8.02503300    -2.70279607    -0.53125027     0.26822401
Ti      0.67074899     4.84659198     6.59985199     0.50416266     1.75048841    -1.22504009
Ti      4.46856299     5.14244302     3.43889900    -0.66018446     1.00301111     3.31866009
O       3.20189300     4.02209101     4.35786498    -0.57976855    -2.27280050    -0.06985921
O       1.00965098     2.41675298     0.80677400     2.42242591     2.26405489    -3.93372476
O       5.01003901     3.12463799     6.69521798     0.79324167     1.27154571    -0.43623409
O       3.30573498     0.90578698     0.53296801     4.82938148     1.28625783    -2.72636384
O       1.22286798     0.38686699     8.71285098     0.74083691    -3.63977917     1.95627830
O       4.14268098     1.11286801     4.66241602    -1.60907692     1.93082771     2.07130076
O       0.65202099     4.91381098     4.68944798     0.20964346    -0.88991673     0.32408330
O       0.10657402     3.50283599     2.53773602    -1.81117521     2.96347234     1.63135425
O       4.65688299     1.15937698     7.60383501    -1.63176357    -1.98146869    -1.73830884
O       2.97001700     1.85499899     2.68717599    -1.79549713     0.97330509    -0.85755938
O       2.42579498     4.19262801     6.81536800     0.07142244    -2.14992435     1.65152944
O       0.16504499     1.01051502     2.38214097    -0.07284452    -2.34434147     0.40333913
O       2.18116602     1.13427302     6.79627798     1.07294000     1.85950991    -2.46112899
O       2.68562799     4.66080901     1.99036899     0.78969406     0.43684756    -1.02020486
