# total energy = -19517.87904794 eV

CRYSTAL
PRIMVEC
        7.60600008     0.00000000     0.00000000
        0.00000000     7.60600008     0.00000000
       -1.89786986    -1.89786986     4.85670466
PRIMCOORD
23 1
Ti      3.80815301     6.63534602     1.12897098     1.60472095    -0.77973977    -0.00599684
Ti      3.85985199     2.76556498     1.19001301    -0.98749347     0.89216182     1.20767691
Ti      0.15770900     6.75638399     1.22168400    -1.18319460    -0.60092051    -0.86634562
Ti     -0.01474701     2.85681000     1.14016599     0.03017756     0.39108679     2.43759722
Ti      5.55392522     2.84572221     3.74112483    -0.75672222     0.26625917     0.71264578
Ti      5.74824524    -0.98920379     3.49304182    -1.10884496    -0.01107632     0.58062859
Ti      1.86950221     2.83645621     3.65885279     1.35448722     0.69289456     0.50711146
Ti      1.95084823    -0.87402677     3.61277082     0.54345119    -1.51147960     0.38566639
O       3.90541500     4.66924198     0.81622903    -0.55054770    -0.29770840     0.08297287
O       3.71081001     0.86934001     0.75327498     0.39637761     1.48793009    -0.49414538
O      -0.16979800     4.77034098     0.98599898     0.93556128     0.26769025    -0.34058979
O       0.04855201     1.02699302     0.72093399     0.09677790    -2.51558961     0.44098267
O       5.55120821     4.72678424     4.06548080     1.31801559     1.42136292    -0.01336717
O       5.61701320     0.98737521     4.23230980     0.37370047     0.06646227    -3.23975599
O       1.78101223     4.74122924     4.07929682    -0.17235422    -0.17144225    -1.51298910
O       1.91181623     0.92036523     4.14640083    -0.24880343     0.29829590    -0.81287822
O       3.76841524     2.92795921     3.45669581    -1.05221048    -0.32327032    -1.06055911
O       3.83434025    -0.77680977     3.14436979    -0.71461628    -0.28477703     0.89814786
O       0.03982022    -0.70163479     3.17339379     0.05781848    -0.36509473    -0.48034961
O       5.64179399     6.62846301     1.55927601     1.97453777     0.33372443     0.78794597
O       5.60275399     2.63774798     1.84523800     1.89421236    -0.01899300    -0.80946688
O       2.03371602     6.48966099     1.47559399    -3.31640395     0.22738099     1.29232203
O       1.87929601     2.68748202     1.71844697    -0.48864708     0.53484288     0.30274520
