# total energy = -19518.08868671 eV

CRYSTAL
PRIMVEC
        7.60600008     0.00000000     0.00000000
        0.00000000     7.60600008     0.00000000
       -1.89786986    -1.89786986     4.85670466
PRIMCOORD
23 1
Ti      3.79281698     6.47621200     1.26515999     0.45835227     1.61982079     0.06088246
Ti      3.71971998     2.81995900     1.21261999     0.51317721    -1.15632888    -0.50716031
Ti      0.07694200     6.78059401     1.30770102    -0.81463660    -0.91276382    -1.32006682
Ti     -0.06013401     2.96664498     0.98980700    -0.50469437     0.06423749     2.20214605
Ti      5.63558224     2.94873122     3.61925779     0.25978642     1.01507242     0.50439509
Ti      5.75406921    -0.98227178     3.61194880    -0.59552068    -0.47608801    -0.40801545
Ti      2.07969522     2.83158624     3.62417380    -1.55121448    -0.40587398     1.60270212
Ti      1.91466024    -1.06046179     3.67839579     0.61072207     0.37668706     0.95089792
O       3.53997201     4.65940098     0.81271899     0.22974024     0.61102752     0.04307859
O       3.73720701     0.85563701     0.92775101     0.09842547     0.93596263    -0.96514158
O      -0.00552599     4.90576701     0.66422000     0.47316595    -0.65817360     1.15231950
O      -0.07060399     0.98262299     0.76442099     0.20433490     0.75728246    -0.13961044
O       5.81690821     4.86003123     3.89024782     0.36961936    -1.21807137     0.47185725
O       5.78183921     1.05676623     4.07936180     0.53209025    -0.68857973    -2.34941323
O       1.85003722     4.66954520     3.99514081    -0.13595279    -0.04772252     1.12454798
O       1.79541924     0.92354421     4.06007483     0.06507053    -0.45416703     0.61077067
O       3.80771924     3.02101921     3.44155483     0.61099487    -0.58291455    -0.88127885
O       3.82104022    -1.12151980     3.29260583     0.29197793     0.45669957    -0.78529567
O       0.15225324     6.32488821     3.13472379    -2.55672239     1.35778774     0.68523267
O       5.71234099     6.61747698     1.50446600    -0.42508733     0.06521554     1.18228572
O       5.62968800     2.92699701     1.71559301     1.26684470    -0.04447110    -1.46571961
O       1.87680099     6.79359299     1.67916800     1.62373144    -0.30351293    -0.32336648
O       1.77130802     2.89052500     1.84456700    -1.02420472    -0.31112597    -1.44604732
