# total energy = -19960.85457610 eV

CRYSTAL
PRIMVEC
        5.93400000     0.00000000     0.00000000
        0.00000000     9.29699974     0.00000000
        0.00000000     0.00000000     4.64899994
PRIMCOORD
24 1
Ti      4.41575602     6.81034901     2.26732798     0.54882557     0.63477064     0.66045828
Ti      4.47313101     2.33187602     2.33581902    -0.09064093    -1.04852351     0.35765807
Ti      1.49895901     7.02529901     2.33151898    -0.55083052     0.02861845    -0.00757164
Ti      1.47230801     2.45922501     2.32495602     0.04164906    -1.76658481    -0.16027363
Ti      2.92589499     4.66104899     0.01239502     0.20514017    -0.93442485     0.03194545
Ti      2.99501898     9.22652498     4.55714901    -0.11997980     1.53615346     0.43748494
Ti      0.00276601     4.66536798     0.04645398    -0.11466173    -0.53550597    -0.54953931
Ti      0.00083599     9.20213901     0.11381100     0.09929553     1.58589044     0.38684087
O       4.45931800     5.59466800     0.82941798    -0.37012484     0.39495810     0.52513876
O       4.50765702     0.97824098     0.80150001    -0.49535535    -0.18695629     0.45957252
O       1.51768998     5.62287902     0.89106601    -0.04790584    -0.41606352    -0.26884673
O       1.48305898     0.89051599     0.92254201     0.02813199     0.03436255    -0.35107912
O       4.47937302     8.47574697     3.71599902    -0.27458106    -1.15585168    -0.37229202
O       4.48979199     3.75079099     3.81215502    -0.30380320     0.21150699    -0.17764273
O       1.43823698     8.42486103     3.77415401     0.56511943    -0.70999138    -0.90257170
O       1.48961401     3.65719901     3.85207298     0.00925880     0.74525098     0.00954471
O       2.86064199     6.13080002     3.30480099     1.10467077    -0.38245174    -0.43452148
O       2.97528401     1.47387400     3.17632299    -0.16680218    -0.45176279     0.33413118
O       0.05960499     5.97900399     3.09134501    -0.71884549    -0.05152441     1.03822675
O       0.02374000     1.42434899     3.08193201    -0.01730173     0.25208493     0.46965022
O       2.98650299     7.81185400     1.37907401     0.23197221     0.37455768     0.02653894
O       2.99168199     3.27598898     1.43376200    -0.29999977     0.78907982    -0.35661420
O       5.87819302     7.78309798     1.44978998    -0.08137159     1.01042952    -0.61932936
O       5.87037401     3.41292000     1.52267102     0.81814076     0.04197739    -0.53690902
