# total energy = -19074.91715528 eV

CRYSTAL
PRIMVEC
        7.60600008     0.00000000     0.00000000
        0.00000000     7.60600008     0.00000000
       -1.89786986    -1.89786986     4.85670466
PRIMCOORD
22 1
Ti      3.67405198     6.65934400     1.31734200     1.23412869     0.84033324    -1.84605430
Ti      3.86014499     2.93815100     1.23145600     0.85712924    -1.48251997     0.57132556
Ti      0.08627801     6.56263897     1.01466700    -1.84249640    -0.41675875    -0.04902093
Ti      0.17253099     2.65016999     1.08321302    -0.30468535     1.20619441     0.44616781
Ti      5.82478221     2.77597823     3.55640281    -0.17152813     0.83838486    -0.90310983
Ti      5.97484725    -1.01069875     3.57873483    -0.59730888    -0.78988792    -0.20162084
Ti      1.96894721     2.95901424     3.78397681    -0.01024328    -0.13395247    -1.30338292
Ti      1.28856423    -0.75474175     3.87725282    -0.00738138    -0.97131968     0.42985904
O       3.50901102     4.71336102     0.81276000     0.16683843     2.38342560     0.07201277
O       3.85890201     1.00215000     0.73377601    -0.27703981    -0.29819408     3.30335919
O       0.24491699     4.64306797     0.57989000    -0.27895297     0.11430615     1.18001698
O       7.23881902     0.78095301     0.60274199     0.91698428     1.34917146     0.86032306
O       5.66528422     4.68501220     3.89286582     0.71908100     0.24300713     0.38596361
O       5.77203721     0.83618123     3.86002281     0.14508046     0.13429134     0.47781553
O       1.95329621     4.93002624     4.25663481    -0.61907173    -1.57381140    -0.46934220
O       2.05898322     0.93376321     4.05577082    -0.52523878     1.34119769     0.02563828
O       3.80522423     3.00034722     3.23919682     0.14504807    -0.50777738     0.16462780
O       0.16910224     3.02195321     3.19198283    -0.90949646    -0.82159478    -0.76947130
O       5.61922198     6.41941599     1.73794599    -0.24501748     0.33188146    -0.24633903
O       5.70869400     2.99395502     1.57888902     1.33371244    -0.54842319     0.06424289
O       1.61681102    -0.81107902     2.08938001     1.96959096    -0.55291825    -2.24781066
O       1.99176200     2.76559498     1.55957198    -1.69913318    -0.68503572     0.05479948
