# total energy = -4985.57071793 eV

CRYSTAL
PRIMVEC
        3.17782720     0.00000000     0.00000000
        2.13266444     4.49932937     0.00000000
       -0.00001393    -0.00006691     5.11677211
PRIMCOORD
6 1
Ti      2.65523875     2.24963126     2.55838595     0.00000000     0.00000000     0.00000000
Ti      0.00000000     0.00000000     0.00000000     0.00000000     0.00000000     0.00000000
O       2.00453570     0.87684005     0.99718349    -1.27500179     0.95896553     0.65703512
O       3.30594174     3.62242248     4.11958840     1.27500179    -0.95896553    -0.65703512
O       0.65069722     1.37276421     3.55557050     1.27486423    -0.95877398     0.65716238
O       1.48195316     3.12649817     1.56120139    -1.27486423     0.95877398    -0.65716238
