# total energy = -4938.17045780 eV

CRYSTAL
PRIMVEC
        4.44968322     0.00000000     0.00000000
       -0.00000630     2.39598356     0.00000000
       -2.22486632    -1.19804569     4.80032596
PRIMCOORD
6 1
Ti     -0.00019045     1.79707023     1.20008130    -0.03276358    -0.02973173    48.04270635
Ti      2.22500072    -0.59913222     3.60024428     0.03276358     0.02973173   -48.04270635
O       0.00004723     0.59898651     0.78193382     0.03325338     0.02947462   -35.42681397
O       2.22476294     0.59895141     4.01839185    -0.03325338    -0.02947462    35.42681397
O      -0.00001817    -0.59900275     3.18209680    -0.00095182    -0.00012213     0.73756930
O       2.22482825     1.79694067     1.61822887     0.00095182     0.00012213    -0.73756930
