# total energy = -39040.39296917 eV

CRYSTAL
PRIMVEC
        7.60629642    -0.00000847    -0.00005503
       -0.00000847     7.60629642    -0.00005503
       -3.80314186    -3.80314186     9.70738094
PRIMCOORD
46 1
Ti      1.90152630     4.71325588     6.06659575    -0.00010259    -0.00132000     0.00532321
Ti      3.83417578     6.66071482     1.18806984    -0.01461056     0.01681811     0.01159028
Ti      1.90152430     0.97289427     5.92508767     0.00013164    -0.00653523    -0.02447717
Ti      3.79701688     2.84583636     1.24640160     0.00877595    -0.01592208     0.00268603
Ti     -1.90166190     4.78950546     6.06803391     0.00008562     0.00522268    -0.00769197
Ti     -0.03113686     6.66066414     1.18811807     0.01454962     0.01674457     0.01165404
Ti     -1.90172553     0.95067308     6.13104301     0.00012521     0.03055346     0.02146435
Ti      0.00587392     2.84580180     1.24646496    -0.00879883    -0.01591796     0.00268166
Ti      3.88710727     0.94577411     8.54340591     0.00355918    -0.00347768     0.01658054
Ti      5.70482851     2.83270781     3.66559765    -0.00009873     0.00734436    -0.00633366
Ti      3.78416148    -2.83608031     8.48898014     0.01830035     0.00261430    -0.03100109
Ti      5.70473168    -0.93822706     3.64410828     0.00006891    -0.02379505     0.02185310
Ti     -0.08392451     0.94585426     8.54337876    -0.00389522    -0.00352344     0.01667695
Ti      1.90166145     2.91334338     3.68908769     0.00005811    -0.01505279     0.00925906
Ti      0.01928738    -2.83601038     8.48894079    -0.01839111     0.00272023    -0.03079309
Ti      1.90155101    -0.97066215     3.47966800     0.00012881     0.01782418     0.04537022
O       1.90164705     2.85173991     5.64906269    -0.00009693    -0.02423111    -0.00509053
O       3.84835168     4.74889217     0.80511193     0.01138742    -0.00294160     0.00656223
O       3.77409524     0.95343427     0.76438658    -0.00694969     0.00938042    -0.02510632
O      -1.90153215     2.82429184     5.73084170    -0.00001877     0.01718012    -0.03248461
O      -0.04530973     4.74886331     0.80515930    -0.01133523    -0.00289969     0.00653652
O      -1.90155055    -0.93533096     5.66744940     0.00001054    -0.01488849     0.00249860
O       0.02909716     0.95340789     0.76445174     0.00686228     0.00937013    -0.02512714
O       3.65379085     2.82654372     8.85779067    -0.00182240     0.00822085     0.01679805
O       5.70471551     4.75029086     4.09435895    -0.00004911    -0.00327996     0.00961696
O       3.69973686    -0.92937958     8.91286042     0.00357898     0.00329564     0.02911313
O       5.70469785     0.95101303     4.09863940    -0.00000643     0.00491415     0.00713301
O       0.14944160     2.82656795     8.85779493     0.00193707     0.00832524     0.01675923
O       1.90145926     4.83708026     4.06971814     0.00005399    -0.01236727     0.00800719
O       0.10351091    -0.92933025     8.91288545    -0.00342265     0.00319794     0.02909127
O       1.90151249     0.86875468     4.04211428    -0.00000720    -0.01534461    -0.03070850
O       3.78860938     2.85354395     3.25977314     0.01416036     0.00310846    -0.02434707
O       1.90163822    -2.81038865     8.06064341     0.00003625     0.00295934     0.01582669
O       3.81839821    -0.95267968     3.17991100     0.00288838    -0.00094591    -0.00921021
O      -1.90156177     0.99517475     8.11281580    -0.00001337     0.01495586    -0.01983504
O       0.01450702     2.85348145     3.25979736    -0.01422181     0.00316940    -0.02430902
O      -1.90154583    -2.87989151     8.08288099     0.00006839     0.00793443    -0.00988281
O      -0.01529650    -0.95266834     3.17995170    -0.00282487    -0.00097625    -0.00921329
O       3.78423190     4.86997569     6.46211330     0.00587137    -0.00993397     0.01709296
O       5.70469327     6.69424601     1.62510829     0.00002494     0.00767526     0.00855792
O       3.66647670     0.78492284     6.54266231     0.00413202    -0.00871939     0.00366434
O       5.70470223     2.81218859     1.69331889    -0.00013781    -0.00566877    -0.00594671
O       0.01895497     4.86998529     6.46214989    -0.00595416    -0.01000288     0.01723000
O       1.90155641     6.63072937     1.52834514     0.00000180    -0.01150852    -0.01527030
O       0.13673099     0.78489041     6.54280299    -0.00399961    -0.00869625     0.00337072
O       1.90154960     2.87906369     1.63123776    -0.00004037     0.01442004    -0.02616947
