# total energy = -19518.08899896 eV

CRYSTAL
PRIMVEC
        5.93400000     0.00000000     0.00000000
        0.00000000     9.29699974     0.00000000
        0.00000000     0.00000000     4.64899994
PRIMCOORD
23 1
Ti      4.46528098     7.10749998     2.16583898     0.97154491    -0.50347541     0.61864133
Ti      4.54101900     2.28129598     2.31056901    -0.79884668    -0.77505908     0.47248872
Ti      1.48222198     7.10726799     2.28805802    -1.49267686    -0.87681927    -0.12003688
Ti      1.44935399     2.30963999     2.34864501     1.12350694    -1.60206860     0.52860281
Ti      2.91932198     4.46943301     0.24956602     0.20734103     0.15211706     0.04445362
Ti      2.98108098     9.26724501     4.51915699    -0.70392640     0.62696065     0.22670531
Ti      5.89566598     4.62124597     0.02368798     0.01013092     1.06393471    -1.10558325
Ti      5.91098100     0.00901199     4.64151701     0.65055028     0.58730060     0.49517923
O       4.43204299     5.51273501     0.93742300    -0.10827485     0.77409440     0.52800631
O       4.43798999     0.90558902     0.93928200     0.09171231     0.08238949     0.12188448
O       1.55407801     5.57893397     0.96521698    -0.15229858    -0.06912028     0.01589894
O       1.53707999     0.90448801     0.96289198    -0.54812314    -0.16863281    -0.23596359
O       4.51863702     8.41298502     3.63825102    -0.47074602    -0.36415216    -0.21639492
O       4.38207098     3.69495200     3.87318000     0.71503357     0.15108399    -0.87347220
O       1.35284799     8.47270299     3.53634699     0.93018279     0.06444550     1.10177982
O       1.52029502     3.81313400     3.80138700    -0.15292464    -0.33968065    -0.53719827
O       2.89923002     1.32980899     3.27317201     0.80920360     0.92491125    -0.51580102
O       0.03810298     6.13659699     3.23887497    -0.35125705    -0.55894492    -0.02253033
O       5.92097600     1.47398301     3.35646297     0.01834843     0.49852629    -0.66279670
O       2.93509802     7.93937000     1.31034601     0.56231024    -1.15290365     0.60109560
O       3.00372400     3.18447402     1.52589101    -0.24767266     0.22568072     0.11478232
O       5.92957201     7.81375999     1.30018898     0.11821551     0.58925567    -0.44862167
O       0.10537300     3.18371698     1.42340102    -1.18133389     0.67015674    -0.13111885
