# total energy = -19073.20032109 eV

CRYSTAL
PRIMVEC
        5.17600016     0.00000000     0.00000000
        0.00000000     5.50899976     0.00000000
        0.00000000     0.00000000     9.26300011
PRIMCOORD
22 1
Ti      1.69464199     3.30961301     3.47118500     1.37626395    -0.15359442    -1.99417535
Ti      3.45316901     2.24029999     6.01340199     0.73674089     1.47766239    -0.31268586
Ti      4.49176101     2.18314800     1.20669998    -0.50991782    -0.41338392    -1.03700779
Ti      0.80091098     3.11143099     8.03883802     0.39078031     0.54910068     1.22984240
Ti      1.85398398     0.50371901     1.34847302     0.31666335    -0.23265150    -1.81982235
Ti      3.29079001     5.13262302     7.98896201    -0.04882192     0.20873817     3.19798301
Ti      1.54765502     0.13913901     5.71979900    -0.99957560     0.70919639     0.66864159
Ti      4.26265700     5.00229302     3.47399202    -0.67765254    -0.30884643    -0.71219713
O       3.41687702     3.61519498     4.51570702    -1.01856604    -1.02247129     0.43732630
O       0.97484398     1.89022701     0.21201502    -0.94705180     0.59220472    -1.21492794
O       4.36782500     3.65974001     8.87750998     0.13289343    -0.50944294    -0.94880324
O       3.59153298     0.74991698     0.22072899     0.32879742     0.34740219    -0.10781154
O       1.80284799     4.73023098     9.03135102    -1.04473422    -0.83038872     0.22440700
O       2.92868498     0.93998898     4.75226899     0.25146632    -0.50438455    -0.86971890
O       0.60531802     4.46222800     4.48120699     0.93928553    -0.02160602     0.97186141
O       5.10053800     3.55314001     2.22532099     0.53791612     0.16561844     1.84590337
O       0.08894702     2.13013798     6.57709599    -0.77372750    -0.34858593    -0.63873528
O       2.57728900     2.05824100     2.06230699     0.97764923     0.32828063     1.63119947
O       2.17600500     4.14775801     6.76178398    -0.37120110    -1.87268914    -1.06207837
O       0.15467401     0.67675399     2.23205800    -0.65530528     0.37420466     1.14062612
O       2.38987400     1.22932601     7.26378798     0.74575389     0.52789447    -1.24959954
O       2.53311800     4.60665100     2.41257200     0.31234338     0.93774183     0.61977287
