# total energy = -4986.14906813 eV

CRYSTAL
PRIMVEC
        3.33766426     0.00000000     0.00000000
        0.00000000     5.22961951     0.00000000
        0.00000000    -0.00006787     5.22961951
PRIMCOORD
6 1
Ti      1.66883207     2.61477576     2.61480969     0.00000000     0.00000000     0.00000000
Ti      0.00000000     0.00000000     0.00000000     0.00000000     0.00000000     0.00000000
O       1.66883207     1.01916258     1.01917580     0.00000000    -0.80580588    -0.80580588
O       1.66883207     4.21038895     4.21044359     0.00000000     0.80580588     0.80580588
O       0.00000000     1.59558567     3.63398656     0.00000000     0.80598766    -0.80598766
O       0.00000000     3.63396585     1.59563283     0.00000000    -0.80598766     0.80598766
