# total energy = -19516.05727314 eV

CRYSTAL
PRIMVEC
        5.17600016     0.00000000     0.00000000
        0.00000000     5.50899976     0.00000000
        0.00000000     0.00000000     9.26300011
PRIMCOORD
23 1
Ti      1.75310999     3.30099800     3.49124299    -0.01583929    -1.40805411     2.48018499
Ti      3.40399500     2.30661399     5.83616598    -0.91436201     0.21766890    -3.02271444
Ti      4.39976497     2.03622400     1.59570098    -0.78129143    -1.96029514    -1.69164664
Ti      1.03446098     3.21001201     7.84568102    -1.17252735     0.30459922     1.43570531
Ti      2.04147698     0.27540998     1.31249801    -1.34956484     1.27267623    -2.73655698
Ti      3.35776898     5.37003602     7.73364499     0.47502048    -1.09055798     2.77179499
Ti      0.61723600     0.49187999     6.01456602     0.06908582     0.15217748    -3.68195556
Ti      4.42468801     4.91940502     3.28886698     0.27731132     0.66762241     3.51461988
O       1.47086198     2.22150202     4.90069400     0.38597646    -1.02778036     0.08119598
O       3.33200303     3.64687799     4.50492398     1.76709569     0.73054607     0.29502340
O       0.17665000     2.45880500     0.12532198     1.82313702     1.47434206    -1.09651934
O       3.50762701     0.90820802     0.22353601    -0.30077650    -0.27556400    -1.15895295
O       1.93222802     4.91859099     8.81740101    -2.06319895    -1.33319025     0.99839392
O       4.33908401     0.86742798     4.62524401    -1.47771535     0.22470499     0.34096054
O       0.86304999     4.82166900     4.41060401     0.63137113    -0.35595779     0.24150561
O       0.07080101     3.24504597     2.66130002    -0.69069524     0.66960087    -0.21438226
O       4.95015001     2.00828900     6.79508802     0.81454661     0.02221048     1.44877629
O       2.45948499     1.83166201     2.22689201     0.84398961     1.16779318     0.65243130
O       2.80709301     3.40407501     7.27345600     0.06678006     0.82581524    -0.21176642
O       0.10545502     0.36488401     1.93073997     1.00096040     0.65906809    -0.44913178
O       5.10760702     4.65102500     7.20371599    -0.13300990     0.51175693    -0.02125969
O       2.35017502     1.01259501     6.77984703    -0.77119831    -0.69446911    -0.18915382
O       2.72222398     4.50928800     2.26775100     1.51490483    -0.75471290     0.21344792
