# total energy = -19517.61773350 eV

CRYSTAL
PRIMVEC
        5.93400000     0.00000000     0.00000000
        0.00000000     9.29699974     0.00000000
        0.00000000     0.00000000     4.64899994
PRIMCOORD
23 1
Ti      4.52096599     7.04816598     2.22812801    -0.39049878     0.41095140     0.08859716
Ti      4.45119201     2.41137802     2.37086902     0.36189267    -1.80669686     0.16040784
Ti      1.37811202     6.92228800     2.22105900     0.14018251     1.38319179     0.46368397
Ti      1.47905698     2.39640198     2.29420701    -0.67633639    -1.88567527     0.59147967
Ti      3.01395998     4.46613698     0.09880898     0.10390115     0.31947306     0.32082057
Ti      2.98932599     9.28872198     4.64546700    -0.53626470     0.39714611    -0.65601464
Ti      0.06475097     4.62672100     0.01131100     0.07920415     0.95122110     0.03240157
Ti      5.92891397     0.09626200     4.61633002     0.81082057    -0.10267010    -0.98103923
O       4.47323399     5.47471802     0.95442001    -0.70402744     1.13467658     0.09331360
O       4.34835398     1.00562701     0.97547100     0.31386574    -0.88862089    -1.17922919
O       1.54442201     5.41260700     1.07894902     0.05887623     0.39447448    -0.81898896
O       1.55293901     1.00673702     0.79692998    -0.79774162    -0.32673591     0.35522349
O       4.49505302     8.42495898     3.65440400    -0.61648675    -0.25013038     0.51097686
O       4.52253600     3.68999900     3.86104301    -0.87679561    -0.20663887    -0.62246482
O       1.34337498     8.30015300     3.60691299     0.68670823     0.89775062     1.57618247
O       1.48416798     3.58119402     3.87963999     0.38583480     0.84344119    -0.29824165
O       2.87987901     1.35662198     3.23965900     0.50319927     0.59594440    -0.51200427
O       0.01711798     6.05317702     3.27390698    -0.83446650    -0.35160054    -0.16922493
O       0.02793500     1.37845101     3.10275201    -0.55414133     0.23717973     0.71986956
O       2.87306501     7.76863001     1.39048302     1.09523687    -0.13228485     0.18958062
O       2.92053099     3.33893498     1.56152999     1.01438825    -0.08009092    -0.03540616
O       5.88550599     7.95212799     1.40791301     0.10938120    -0.61095347    -0.36157180
O       5.85388098     3.36366799     1.48038600     0.32326723    -0.92335265     0.53164854
