# total energy = -19076.70109645 eV

CRYSTAL
PRIMVEC
        7.60600008     0.00000000     0.00000000
        0.00000000     7.60600008     0.00000000
       -1.89786986    -1.89786986     4.85670466
PRIMCOORD
22 1
Ti      3.76885202     6.52598699     1.10987398     0.07291317    -0.24295905     0.66031867
Ti      3.78590698     2.80433499     1.20057602     0.00850907     0.55608123     0.68962772
Ti      0.01436499     6.66988399     1.14191000    -0.36994023    -0.57667243     0.13413424
Ti     -0.02000697     2.91934701     1.20199898    -0.31612599     0.53865171     0.25171161
Ti      5.73582323     2.85506520     3.57316884    -0.47838452     0.70402101     0.43045914
Ti      5.88689323    -0.87034677     3.73327380    -0.69651468    -0.68440272    -1.08697437
Ti      1.91567525     2.74510423     3.55004083     0.05119583     1.05643557     0.56810834
Ti      1.91915322    -0.96567778     3.75890582    -0.66066680    -0.98455598    -0.39608116
O       3.54959399     4.67784698     0.73015999     0.51367112     0.37670223    -0.06384694
O       3.73111697     0.92820902     1.04441999     0.25361371    -0.51639598    -1.35688117
O       0.07903802     4.76532898     0.69907500    -0.26084983     0.36628592     0.51387115
O      -0.16909102     1.07199399     0.79754103     0.34914488    -1.23485246     0.54883174
O       5.83792422     4.79641021     4.10424081    -0.12076862     0.91229562    -0.25879423
O       5.64559523     0.99830521     3.99528183     0.33391006    -0.25832603    -0.38462381
O       1.82284423     4.68364121     4.05026679     0.32411338     1.29019573     0.44462515
O       1.89819224     0.88568423     3.92996184     0.14296702     0.05450484     0.87774846
O       3.79957224     3.00404823     3.22624081    -0.38933561    -0.54010259     0.06929948
O      -0.03461079     2.98665322     3.14769482     0.26356234    -0.67833748     0.10995584
O       5.66549298     6.45255502     1.82299102     0.22611369     0.58533988    -0.10237185
O       5.62619898     3.06164700     1.62532400     0.60511835    -0.37365290    -0.62551955
O       1.80454401     6.58060200     1.87143900     0.39987791     0.24735898    -0.30929714
O       1.88138901     2.91547401     1.66527699    -0.25212453    -0.59761510    -0.71430132
