# total energy = -4975.35637155 eV

CRYSTAL
PRIMVEC
        3.23267598     0.00000000     0.00000000
       -0.00000720     3.23267598     0.00000000
       -1.61636334    -1.61636694     4.12561351
PRIMCOORD
6 1
Ti     -0.00014236     2.42462942     1.03140326     0.00550113    -0.00559909     0.00254694
Ti      1.61644771    -0.80832048     3.09420997    -0.00550113     0.00559909    -0.00254694
O       0.00003229     0.80816350     0.67202868     0.00164705     0.00646787     4.86977327
O       1.61627297     0.80814536     3.45358460    -0.00164705    -0.00646787    -4.86977327
O      -0.00001826    -0.80814947     2.73483539     0.00643085     0.00163137     4.87292955
O       1.61632347     2.42445828     1.39077789    -0.00643085    -0.00163137    -4.87292955
