# total energy = -19960.76887897 eV

CRYSTAL
PRIMVEC
        5.93400000     0.00000000     0.00000000
        0.00000000     9.29699974     0.00000000
        0.00000000     0.00000000     4.64899994
PRIMCOORD
24 1
Ti      4.43096997     6.86990802     2.15320397     0.75659547     0.21485740     0.58000278
Ti      4.46154203     2.35259198     2.28893900    -0.77815315     0.69697310    -0.36757430
Ti      1.51156402     6.98617302     2.34483102    -0.81748358    -0.29626550    -0.13496163
Ti      1.43754799     2.28374898     2.42915599     0.76499141     0.31464812    -0.83579756
Ti      2.94289899     4.69063101     4.62308000    -0.30214253    -0.50039034     0.93698696
Ti      2.98406200     0.09350297     0.07031400     0.45648591    -0.37174155    -0.73460276
Ti      0.01048798     4.59463402     4.54899301     0.09080163     0.27832716     0.32791888
Ti      0.00594102     0.01740400     0.05968802    -0.57060591    -0.65522197    -0.48006833
O       4.51989498     5.57012899     0.81163402    -0.76492816    -0.34771663     0.22815155
O       4.44084802     0.82263599     1.08130799     0.19938475     0.48174701    -0.30333629
O       1.50444298     5.60737598     0.87668499     0.36585680    -0.29892196    -0.37863648
O       1.52490500     0.82957900     1.14248199    -0.72091882    -0.07846110    -0.83126753
O       4.39416199     8.51480899     3.82074500     0.43265460    -0.39873685    -0.28263890
O       4.53627000     3.69848801     3.71651999    -0.59693247     0.70887449     0.37128466
O       1.45151198     8.52092199     3.75908399     0.21609719    -0.52122554    -0.31907531
O       1.51626300     3.74483902     3.77095301    -0.00125213    -0.00429194    -0.21239428
O       2.99533601     5.94483501     3.09463200    -0.45813013     0.49014423     0.55343273
O       3.04745198     1.53205799     3.23790700    -0.79038826    -0.71680429     1.23486480
O       5.88897400     6.07590899     3.23275800     0.48339354     0.08407485    -0.18125461
O       5.84473399     1.48770199     3.32754698     0.77036758    -0.30907217     0.30427372
O       2.94109000     7.83622299     1.40229802     0.00698286     0.19645601     0.17623299
O       2.85747301     3.29897898     1.41486201     1.05927047    -0.31943398    -0.04267416
O       5.90215099     7.69612199     1.31991300     0.65084698     1.40246993     0.19180025
O       0.07822901     3.20471002     1.38898201    -0.45279406    -0.05028848     0.19933282
