# total energy = -19906.29112043 eV

CRYSTAL
PRIMVEC
        6.95621157     0.00000000     0.00000000
        0.00002278     3.17293392     0.00000000
        0.00000000     0.00000000    10.58681032
PRIMCOORD
24 1
Ti      2.52130551     1.88027772     3.92763112    -0.91094399     0.72274174    -0.44480795
Ti      4.43492854     1.29265626     6.65917935     0.91094399    -0.72274174     0.44480795
Ti      5.99929223     1.29265734     1.36573177    -0.90941598    -0.72249748     0.44715434
Ti      0.95694181     1.88027674     9.22107880     0.90941598     0.72249748    -0.44715434
Ti      2.52129427     0.29381081     1.36577424    -0.91152737     0.72269160     0.44544250
Ti      4.43493978     2.87912322     9.22103633     0.91152737    -0.72269160    -0.44544250
Ti      0.95693058     0.29380963     6.65913688     0.91004590     0.72243012     0.44674785
Ti      5.99930347     2.87912440     3.92767359    -0.91004590    -0.72243012    -0.44674785
O       2.20169282     1.11724396     5.40236831     6.34182345    -1.35653459     3.10879243
O       4.75454122     2.05568996     5.18444216    -6.34182345     1.35653459    -3.10879243
O       1.27646951     1.11725676     0.10899714    -6.34403280    -1.35687706     3.10634449
O       5.67976458     2.05567721    10.47781303     6.34403280     1.35687706    -3.10634449
O       4.75453004     0.46922300     0.10896279    -6.34167509     1.35704238     3.10861297
O       2.20170401     2.70371097    10.47784737     6.34167509    -1.35704238    -3.10861297
O       5.67975340     0.46921020     5.40240265     6.34396440     1.35743679     3.10625424
O       1.27648060     2.70372377     5.18440782    -6.34396440    -1.35743679    -3.10625424
O       0.25274901     1.92995826     2.85976161     1.96720241    -0.88696896     0.70729943
O       6.70348504     1.24297566     7.72704886    -1.96720241     0.88696896    -0.70729943
O       3.73086364     1.24294610     2.43367728     1.97222660     0.88741016    -0.70656461
O       3.22537041     1.92998787     8.15313304    -1.97222660    -0.88741016     0.70656461
O       0.25273782     0.34349130     2.43364350     1.96689208    -0.88667302    -0.70676747
O       6.70349623     2.82944267     8.15316682    -1.96689208     0.88667302     0.70676747
O       3.22535922     0.34352086     7.72708259    -1.97179620    -0.88666325    -0.70725469
O       3.73087483     2.82941311     2.85972783     1.97179620     0.88666325     0.70725469
