# total energy = -19960.45052714 eV

CRYSTAL
PRIMVEC
        5.93400000     0.00000000     0.00000000
        0.00000000     9.29699974     0.00000000
        0.00000000     0.00000000     4.64899994
PRIMCOORD
24 1
Ti      4.46246301     6.78994002     2.36363501    -0.83557104     2.89177993     0.28939962
Ti      4.43216200     2.47113901     2.38075199     0.94304499    -1.88362841     0.07032381
Ti      1.50456999     6.98057502     2.19558499     0.67624795     1.83024741     0.25933262
Ti      1.45395799     2.32330202     2.30862698    -0.74270482    -0.13847504     1.14314837
Ti      3.00584600     4.66265198     0.07902701    -0.76976517    -0.91534906    -0.71488136
Ti      2.89898099     0.09934297     0.01957501     2.20982208    -0.58734405    -0.97395249
Ti      0.02684199     4.70552100     4.55794701     0.78784029    -1.50148521    -0.17834129
Ti      0.01524200     0.01605000     0.10441598    -2.90235514    -0.28849716    -1.38336971
O       4.45472802     5.47242102     0.90373298     0.16380633     0.23477883     0.17542823
O       4.42878199     0.79893599     0.99975399     0.55056081     0.24304364    -0.19009073
O       1.43898498     5.53189901     0.83702500     0.51894214    -0.20412895     0.30278273
O       1.41695400     0.88871398     1.04948702     0.50436090    -0.75212277    -0.88367357
O       4.45841200     8.43479400     3.71708102     0.24953851    -0.63394531    -0.15607785
O       4.43731100     3.75118502     3.77293002    -0.10155218     0.42138982     0.07247325
O       1.61852598     8.45161300     3.63135701    -1.02348816    -0.39801000     0.28646419
O       1.44385002     3.74740299     3.62496000     0.10447502     0.85525850     1.38648872
O       3.06096601     5.97152698     3.21394501    -0.88362575    -0.05119660     0.21221713
O       2.97880102     1.50878102     3.39570999    -0.44695380     0.24602972    -0.56002607
O       0.01196703     6.02158302     3.16478899     0.42004874    -0.20306169     0.49323239
O       5.81540101     1.47774102     3.20642302     1.05721462    -0.49213658     0.88638891
O       2.97472101     7.68578800     1.30219102    -0.25160362     0.12757356     0.62394963
O       2.96950301     3.09822098     1.35115700    -0.53812309     1.25130444    -0.59839106
O       0.01561502     7.82306499     1.32863998     0.49951822    -0.66285841     0.54037435
O       0.00618402     3.24316200     1.47919001    -0.18967781     0.61083263    -1.10319958
