# total energy = -19958.76696173 eV

CRYSTAL
PRIMVEC
        7.60600008     0.00000000     0.00000000
        0.00000000     7.60600008     0.00000000
       -1.89786986    -1.89786986     4.85670466
PRIMCOORD
24 1
Ti      3.69980000     6.62082699     1.32747399    -2.31303031     1.58980443     0.09498661
Ti      3.71423500     3.02795201     1.23091402     0.26951033    -1.17133590     1.14525179
Ti     -0.10882498     6.61402002     1.13962702     2.63040457    -1.33566750    -0.03694548
Ti      0.11130698     2.69417600     1.12703499    -1.38285215     1.58537365    -0.56909744
Ti      5.79827921     2.91134225     3.60601884    -0.33891677    -2.32537881    -2.11728187
Ti      5.82711324    -1.05821379     3.56328682    -1.66885174     1.76787988     0.31106195
Ti      1.86187925     2.94154123     3.75602582     0.59484113     0.70664148    -2.18648288
Ti      1.78702824    -0.95373976     3.79173783     1.96202883    -0.68181876    -0.50285654
O       3.66544602     4.87848300     0.75925098     0.47174824    -1.50928979     1.53864538
O       3.67648900     1.08577001     0.80966098     0.21249636    -0.67345830     1.15881488
O       0.19657099     4.65417800     0.56360002    -0.94141389     0.42041666     1.84602627
O       0.37248898     0.85030502     0.64303000    -1.44999731    -0.56102212     0.83041006
O      -1.55904376     4.62487523     4.09548980    -0.97686375     2.69860054    -0.16311573
O       5.78071122     0.87541020     3.77289181    -0.50923237    -1.02279447     0.69565438
O       1.57084923     4.78073021     4.20383784     0.36151061     1.22663829    -0.00863017
O       1.97727423     1.13476023     4.19659383    -0.13545733    -1.77928992    -1.14656742
O       3.70320721     3.13220824     3.25223479     1.55701540    -0.24279579    -0.57399282
O       3.61788622     6.32348023     3.27747380     1.84498935     0.90235599     0.51879507
O       0.11712624     2.91070120     3.04465380    -1.01191022    -0.88450661     1.08544251
O      -0.00672076    -0.97524779     3.24562982    -0.79305552     0.37028013    -1.64124040
O       5.55472099     6.54732802     1.53982102     2.96356465     0.13356037     0.56146538
O       5.90781002     3.02170502     1.58626199    -2.09825467    -0.52967110    -0.24448758
O       1.85245000     6.35486599     1.75117198    -1.75391287     1.36580547    -0.33403450
O       1.84552799     2.96483699     1.58210398     2.50563969    -0.05032756    -0.26182119
