# total energy = -19945.78364641 eV

CRYSTAL
PRIMVEC
        5.77374244     0.00000000     0.00000000
        1.21686336     6.02331849     0.00000000
        0.00000000     0.00000000    10.38630228
PRIMCOORD
24 1
Ti      2.81381594     3.56941296     3.85324420     0.15268348    -1.76575049     0.86221899
Ti      4.17678958     2.45390567     6.53305849    -0.15268348     1.76575049    -0.86221899
Ti      5.47523136     2.45390783     1.33986565    -0.42003871    -0.34461537    -0.04280708
Ti      1.51537418     3.56941104     9.04643716     0.42003871     0.34461537     0.04280708
Ti      2.20538440     0.55775394     1.33990729     0.15268348    -1.76575049    -0.86221899
Ti      4.78522114     5.46556487     9.04639552    -0.15268348     1.76575049     0.86221899
Ti      0.90694254     0.55775161     6.53301685     0.42003871     0.34461537    -0.04280708
Ti      6.08366299     5.46556720     3.85328585    -0.42003871    -0.34461537     0.04280708
O       2.25590411     2.12091286     5.30005071     1.49888094     1.72483368    -0.54837640
O       4.73470141     3.90240577     5.08625198    -1.49888094    -1.72483368     0.54837640
O       1.48796218     2.12093712     0.10693282    -0.64442771     0.16576294     0.73964238
O       5.50264341     3.90238157    10.27936958     0.64442771    -0.16576294    -0.73964238
O       4.12626985     0.89074658     0.10689910    -1.49888094    -1.72483368    -0.54837640
O       2.86433567     5.13257206    10.27940330     1.49888094     1.72483368     0.54837640
O       4.89421185     0.89072237     5.30008443     0.64442771    -0.16576294     0.73964238
O       2.09639362     5.13259633     5.08621826    -0.64442771     0.16576294    -0.73964238
O       0.94993863     3.66372368     2.80559946     0.32371589     0.98939223     1.09527930
O       6.04066689     2.35959496     7.58070323    -0.32371589    -0.98939223    -1.09527930
O       3.57334269     2.35953870     2.38758492     0.76379970     1.09516925     0.30329053
O       3.41726283     3.66377994     7.99871759    -0.76379970    -1.09516925    -0.30329053
O       0.34150707     0.65206448     2.38755173     0.32371589     0.98939223    -1.09527930
O       6.64909845     5.37125421     7.99875078    -0.32371589    -0.98939223     1.09527930
O       2.80883126     0.65212068     7.58073636    -0.76379970    -1.09516925     0.30329053
O       4.18177426     5.37119795     2.80556628     0.76379970     1.09516925    -0.30329053
