# total energy = -4988.00281877 eV

CRYSTAL
PRIMVEC
        3.61495280     0.00000000     0.00000000
        1.06061428     3.45586184     0.00000000
       -2.33781616    -1.72795504     4.66746137
PRIMCOORD
6 1
Ti      0.79535008     2.59202887     1.16686507     0.00078007    -0.00078007     0.00000000
Ti      1.54240060    -0.86412223     3.50059561    -0.00078007     0.00078007     0.00000000
O       0.26519138     0.86396067     0.76029119     0.00024837     0.00087315    -0.29421813
O       2.07255914     0.86394589     3.90716949    -0.00024837    -0.00087315     0.29421813
O      -0.26516354    -0.86394009     3.09402172     0.00087315     0.00024837    -0.29421813
O       2.60291405     2.59184656     1.57343900    -0.00087315    -0.00024837     0.29421813
