# total energy = -19518.27664861 eV

CRYSTAL
PRIMVEC
        5.93400000     0.00000000     0.00000000
        0.00000000     9.29699974     0.00000000
        0.00000000     0.00000000     4.64899994
PRIMCOORD
23 1
Ti      4.53664201     7.03913102     2.29682702     1.35952761    -0.11297586     0.44541936
Ti      4.41867999     2.27241999     2.34435999     1.01686242    -0.20929867     0.05439325
Ti      1.50436202     7.12567801     2.25804102    -1.14443855    -0.41287664     0.04833624
Ti      1.46885798     2.33033399     2.31379101    -1.05696419    -0.34572994     0.21893106
Ti      2.96266800     4.48286898     0.07676002    -0.23537841     0.84908657     0.43668249
Ti      2.96933500     0.03411098     4.61744802     0.20027795    -0.77561701    -0.38557511
Ti      5.91624002     4.60829902     0.01914098     0.28296363     1.10456767    -0.24650666
Ti      0.00111302     0.07589502     0.04355901    -0.39709597    -0.27263294    -0.70813864
O       4.50759002     5.53774700     0.91495397    -0.81267099     0.08050333    -0.11885237
O       4.40090599     0.85170502     0.94370698    -0.42556170     0.59501623    -0.10712017
O       1.51169499     5.61020697     0.89539802     0.36294143    -0.35671498    -0.15145372
O       1.49887101     0.80800799     0.93476103     0.27148623     1.25068454     0.45754160
O       4.46427300     8.41301899     3.72465498    -0.60018903    -0.67223137    -0.07655771
O       4.41762899     3.68245600     3.70820000    -0.12555318     0.64099040     0.12062438
O       1.30028799     8.34053002     3.80623998     1.93273393    -0.36589511    -0.84008410
O       1.49360199     3.75251500     3.65758197     0.35623702     0.04879261     0.25012961
O       2.95305697     1.37377298     3.19291699    -0.55682608    -0.09192391     0.45774472
O       0.04743598     6.08154298     3.25220998    -0.32594375    -0.09151048    -0.54289866
O       5.90304800     1.35240898     3.21100300     0.23744789     0.73334806     0.00076336
O       3.06186899     7.91303698     1.42407001    -0.85915578    -0.75109382     0.49645989
O       2.92875398     3.26205902     1.40505799     0.12163791    -0.67103478     0.22037936
O       0.01399901     7.94347600     1.44361798    -0.21122520    -0.30625681     0.05554305
O       5.86372701     3.15622098     1.35286101     0.60888682     0.13280293    -0.08576175
