# total energy = -4980.91385933 eV

CRYSTAL
PRIMVEC
        4.62082508     0.00000000     0.00000000
       -0.00001029     4.62082508     0.00000000
       -2.31044878    -2.31045392     5.89720048
PRIMCOORD
6 1
Ti     -0.00020349     3.46579382     1.47429996    -0.00136808     0.00136808     0.00000000
Ti      2.31056937    -1.15542280     4.42290014     0.00136808    -0.00136808     0.00000000
O       0.00004616     1.15519842     0.96060571    -0.00046486    -0.00261404    -1.33091045
O       2.31031960     1.15517248     4.93659446     0.00046486     0.00261404     1.33091045
O      -0.00002610    -1.15517836     3.90920588    -0.00261404    -0.00046486    -1.33091045
O       2.31039179     3.46554919     1.98799428     0.00261404     0.00046486     1.33091045
