# total energy = -19961.16301156 eV

CRYSTAL
PRIMVEC
        7.60600008     0.00000000     0.00000000
        0.00000000     7.60600008     0.00000000
       -1.89786986    -1.89786986     4.85670466
PRIMCOORD
24 1
Ti      3.82342602     6.66314402     1.16949199    -0.30644604     0.88308016    -0.26520219
Ti      3.74361699     2.84935898     1.23011099     1.15411284    -0.81110313    -0.81556991
Ti     -0.06805299     6.73119002     1.23936201     0.38502824     0.18555478     0.02346930
Ti     -0.03068302     2.87306099     1.32244501    -0.89243461    -0.35993324    -1.17064453
Ti      5.65259524     2.93742524     3.71491881     0.95336746    -2.15320688    -0.98861190
Ti      5.63004123    -0.95973777     3.61170982     1.33691655     2.20226226     1.07038201
Ti      1.96743720     2.80840420     3.64748882    -0.60079196    -1.16889824    -0.00769274
Ti      1.94063723    -1.01161778     3.53542580    -0.68880728     0.99667643     0.98677768
O       3.86539999     4.77343598     0.77386098    -0.26010780    -0.18290680     0.25751048
O       3.91943798     1.00725900     0.72019701    -0.57563293    -1.54342557    -0.13832592
O      -0.08324397     4.77031002     0.73011501     0.11981782    -0.23569620     1.68883205
O      -0.09441999     1.02835100     0.74941400     0.15008100    -1.10910747     0.47608801
O       5.62863023     4.75939521     4.12815480    -0.12407351     0.66416607    -0.65555879
O       5.72161223     0.92052722     3.98532182     0.04320509    -0.25481647     0.74234049
O       2.04715722     4.72905324     4.02181081    -0.06702586     0.05885129    -0.31350038
O       2.09178925     0.90950721     4.12570979    -0.71865291     0.62642021    -0.94815841
O       3.88191625     2.55705723     3.10858280    -1.53004452     1.13013678     1.03141179
O       3.84229823    -0.93804679     3.17983684    -1.66888054    -0.42506393    -0.71798237
O      -0.02736878     2.72463322     3.32751481     1.63781775     0.70024561    -0.32979732
O       0.00414023    -1.03104578     3.22193283     0.44724947    -0.04480843    -0.44024064
O       5.65520900     6.78074700     1.61016900     0.58499458    -0.51328700    -0.10054483
O       5.77020202     2.86933902     1.72816600    -0.51974767     0.62668734    -0.76430518
O       1.85595400     6.70692698     1.48682599     0.89509262    -0.04209026     0.93976169
O       1.89522303     2.71173601     1.63901398     0.24496246     0.77026243     0.43956213
