# total energy = -19899.41875282 eV

CRYSTAL
PRIMVEC
        6.79059502     0.00000000     0.00000000
        3.09557928     6.53073341     0.00000000
        0.00000000     0.00000000    12.48950903
PRIMCOORD
24 1
Ti      4.29570143     3.87010653     4.63351874    -0.26639107    -1.98779644     0.36392308
Ti      5.59047264     2.66062679     7.85599036     0.26639107     1.98779644    -0.36392308
Ti      7.11759233     2.66062900     1.61118592    -0.07943966    -1.32102635     0.31947846
Ti      2.76858186     3.87010457    10.87832338     0.07943966     1.32102635    -0.31947846
Ti      2.74791195     0.60473993     1.61123598    -0.26639107    -1.98779644    -0.36392308
Ti      7.13826216     5.92599359    10.87827333     0.26639107     1.98779644     0.36392308
Ti      1.22079221     0.60473752     7.85594030     0.07943966     1.32102635     0.31947846
Ti      8.66538197     5.92599598     4.63356887    -0.07943966    -1.32102635    -0.31947846
O       3.23927222     2.29958222     6.37330087     1.75625463     1.95079928    -0.79878446
O       6.64690185     4.23115110     6.11620830    -1.75625463    -1.95079928     0.79878446
O       2.33608956     2.29960860     0.12858652    -0.04911940    -0.99588427     1.72140460
O       7.55008460     4.23112483    12.36092231     0.04911940     0.99588427    -1.72140460
O       5.09911235     0.96578436     0.12854594    -1.75625463    -1.95079928    -0.79878446
O       4.78706174     5.56494902    12.36096282     1.75625463     1.95079928     0.79878446
O       6.00229508     0.96575803     6.37334137     0.04911940     0.99588427     1.72140460
O       3.88387894     5.56497537     6.11616773    -0.04911940    -0.99588427    -1.72140460
O       2.12962477     3.97236231     3.37372799     0.63103868     2.97716939     2.79303925
O       7.75654924     2.55837103     9.11578118    -0.63103868    -2.97716939    -2.79303925
O       4.85467252     2.55831025     2.87106629     0.48006679     2.16535046     1.88154016
O       5.03150154     3.97242307     9.61844261    -0.48006679    -2.16535046    -1.88154016
O       0.58183525     0.70699551     2.87102640     0.63103868     2.97716939    -2.79303925
O       9.30433876     5.82373783     9.61848250    -0.63103868    -2.97716939     2.79303925
O       3.48371202     0.70705627     9.11582094    -0.48006679    -2.16535046     1.88154016
O       6.40246204     5.82367705     3.37368809     0.48006679     2.16535046    -1.88154016
