# total energy = -4986.44451015 eV

CRYSTAL
PRIMVEC
        4.43922464     0.00000000     0.00000000
       -0.00000761     3.28116623     0.00000000
       -2.21963949    -1.64062603     5.03986521
PRIMCOORD
6 1
Ti     -0.00019171     2.46099549     1.25996601    -0.00384946    -0.00859314     7.76578627
Ti      2.21976903    -0.82045530     3.77989845     0.00384946     0.00859314    -7.76578627
O       0.00004630     0.82028379     0.82095272     0.00184760     0.00206151    -2.46091353
O       2.21953086     0.82025635     4.21891173    -0.00184760    -0.00206151     2.46091353
O      -0.00001987    -0.82028063     3.34088516    -0.00197821    -0.00041498    -1.22594178
O       2.21959698     2.46082067     1.69897935     0.00197821     0.00041498     1.22594178
