# total energy = -4989.68079237 eV

CRYSTAL
PRIMVEC
        3.21454137     0.00000000     0.00000000
        0.00000000     4.12094002     0.00000000
        0.00000000    -0.00006051     4.62507304
PRIMCOORD
6 1
Ti      1.60727069     2.06043970     2.31253663     0.00000000     0.00000000     0.00000000
Ti      0.00000000     0.00000000     0.00000000     0.00000000     0.00000000     0.00000000
O       1.60727069     0.80309871     0.90135867     0.00000000     0.00494860    -0.12910774
O       1.60727069     3.31778069     3.72371458     0.00000000    -0.00494860     0.12910774
O       0.00000000     1.25731651     3.21389613     0.00000000    -0.00498434    -0.12885731
O       0.00000000     2.86356289     1.41117712     0.00000000     0.00498434     0.12885731
