# total energy = -19074.66028269 eV

CRYSTAL
PRIMVEC
        7.60600008     0.00000000     0.00000000
        0.00000000     7.60600008     0.00000000
       -1.89786986    -1.89786986     4.85670466
PRIMCOORD
22 1
Ti      3.67092798     6.85725402     1.28223998     1.84543029     0.53891422    -2.97962762
Ti      3.89785702     3.04557700     1.08904001     0.35341317    -0.41558247     1.24177850
Ti     -0.17531399     6.49574197     1.08024302    -0.58232037    -0.88746107     0.67969554
Ti      0.06280699     2.61229699     1.31534298    -0.68841801     0.89778559    -1.79994926
Ti      5.70862124     2.63501822     3.56933579    -1.88361401     0.47342409     1.05567118
Ti     -1.42923880    -1.11436479     3.77880881    -1.86224325     0.70430924    -0.59994503
Ti      1.86518624     2.91140025     3.62180282     2.73688222     0.82121734     0.02976439
Ti      1.56606922    -0.74983379     3.68696280     0.27466128    -0.93022547    -0.28066147
O       4.01954202     4.97536901     0.64316198    -1.06609572    -0.47371539    -0.09465546
O       4.05972901     1.14100098     0.72778499    -1.13154986    -0.61250642     0.87492616
O      -0.29638302     4.63348098     0.76666798     1.10689040     0.50713075     0.21001884
O       7.27832797     0.79601599     0.80764498     1.27959841     0.20948534     0.58861186
O       5.68456521     4.64647423     4.03254983     1.21467520     0.30760921    -0.59691087
O       5.51474223     0.76341423     4.24978180     1.09524330     0.11833455    -1.93781855
O       1.90088924     5.06593923     4.06906179    -0.67024005    -1.34169212    -0.27654976
O       2.26473422     1.06719324     3.96048679    -0.73992854     0.26804532    -0.51431158
O       3.83704921     3.05415920     3.01161483    -0.47458545    -0.34832933     1.26636339
O       0.06392620     2.53875924     3.34323582    -0.49206896     0.40888706    -0.63363858
O       5.50115100     6.58891998     1.88637201     1.35653176     0.33537893     1.62758989
O       5.72669497     2.90856201     1.67024999     1.49945275    -0.57727098     0.51407864
O       1.88491502     6.69505299     1.65952801    -1.20857500     0.01524742     0.94217339
O       2.00324901     2.90595501     1.42093500    -1.96314058    -0.01898529     0.68339665
