# total energy = -19071.81201960 eV

CRYSTAL
PRIMVEC
        5.93400000     0.00000000     0.00000000
        0.00000000     9.29699974     0.00000000
        0.00000000     0.00000000     4.64899994
PRIMCOORD
22 1
Ti      4.50327702     7.04742402     2.37294398    -3.59644835    -2.37670628     0.25407882
Ti      4.38547999     2.54642903     2.06295999     1.18304368    -1.47719444     0.38415149
Ti      1.38526999     7.12399697     2.52332700     3.38252169    -0.55455810     1.34818493
Ti      1.56047799     2.21588602     2.20751698    -0.02500733     0.75432261     0.63033806
Ti      3.06473602     4.48074502     4.29673797    -2.08534953     1.56780530     1.18576519
Ti      3.05781401     0.18011601     0.26908197     0.02838936     0.18700926     0.42580441
Ti      5.80140200     4.64106599     4.50717102     2.23733058     1.03957093     1.94667317
Ti      5.88692900     8.91047498     0.11399901     1.83257040     1.02614334    -0.34453849
O       4.47596301     5.44003098     0.99404602    -0.09681544     0.19357946     0.05316375
O       4.62691701     0.78687302     1.33324001    -0.57916100     0.03696733    -1.33356563
O       1.38025699     0.72255301     1.05004298    -0.23203675     0.81784636     0.29858155
O       4.33192599     8.47676702     3.98565499    -0.54771691    -0.44057540    -1.43207131
O       4.56577597     3.99054400     3.47791799     0.06738093    -2.46969977    -3.05724257
O       1.66057297     8.15498798     3.99322598    -0.63969507     1.64163121     0.48764872
O       1.50269897     4.02418301     3.48929699    -1.58733515    -1.21114945    -0.06466044
O       2.95625098     5.94343597     3.10948500    -0.30555336     0.77179249     0.27343718
O       3.03666100     1.70299198     3.39722402    -0.70323863    -0.54593771    -0.29560395
O       5.77842999     6.43191801     3.61070603     1.43225952    -1.10698168    -0.11950800
O       3.06724602     7.98498498     1.61366300    -1.30148185     0.04382961    -0.30242355
O       2.90991702     2.83200397     1.09262402    -0.66090874     2.02905649    -1.31353467
O       5.89071902     8.00489601     1.68722599     1.08751688    -0.10932875    -0.62722059
O       5.80056600     3.03435199     0.92087700     1.10973456     0.18257667     1.60254168
