# total energy = -19958.40971501 eV

CRYSTAL
PRIMVEC
        5.22757762     0.00000000     0.00000000
        1.10175466     5.45354512     0.00000000
        0.00000000     0.00000000     9.40381423
PRIMCOORD
24 1
Ti      2.54764416     3.23176579     3.48874813     0.94708960    -1.42793389     0.78995374
Ti      3.78168786     2.22177946     5.91506647    -0.94708960     1.42793389    -0.78995374
Ti      4.95730407     2.22178142     1.21312160    -1.63426191    -0.47197553     0.73275567
Ti      1.37202798     3.23176405     8.19069311     1.63426191     0.47197553    -0.73275567
Ti      1.99676696     0.50499343     1.21315931     0.94708960    -1.42793389    -0.78995374
Ti      4.33256508     4.94855198     8.19065540    -0.94708960     1.42793389     0.78995374
Ti      0.82115068     0.50499132     5.91502877     1.63426191     0.47197553     0.73275567
Ti      5.50818136     4.94855409     3.48878583    -1.63426191    -0.47197553    -0.73275567
O       2.04250777     1.92028597     4.79869456     0.38823852     0.78546639    -0.59413665
O       4.28682425     3.53325928     4.60512004    -0.38823852    -0.78546639     0.59413665
O       1.34720900     1.92030793     0.09681755     0.19938475    -0.42716915     0.43226431
O       4.98212308     3.53323737     9.30699678    -0.19938475     0.42716915    -0.43226431
O       3.73594703     0.80648676     0.09678702    -0.38823852    -0.78546639    -0.59413665
O       2.59338499     4.64705849     9.30702731     0.38823852     0.78546639     0.59413665
O       4.43124586     0.80646485     4.79872509    -0.19938475     0.42716915     0.43226431
O       1.89808611     4.64708046     4.60508951     0.19938475    -0.42716915    -0.43226431
O       0.86007957     3.31715522     2.54020492    -0.11941776     0.15608787    -0.02034592
O       5.46925245     2.13639003     6.86360968     0.11941776    -0.15608787     0.02034592
O       3.23532379     2.13633909     2.16173229     0.82850848    -0.05550551    -0.49813317
O       3.09400824     3.31720616     7.24208215    -0.82850848     0.05550551     0.49813317
O       0.30920235     0.59038271     2.16170225    -0.11941776     0.15608787     0.02034592
O       6.02012968     4.86316260     7.24211219     0.11941776    -0.15608787    -0.02034592
O       2.54313101     0.59043359     6.86363967    -0.82850848     0.05550551    -0.49813317
O       3.78620102     4.86311166     2.54017487     0.82850848    -0.05550551     0.49813317
