# total energy = -4985.95532312 eV

CRYSTAL
PRIMVEC
        4.16934833     0.00000000     0.00000000
        1.60358810     3.84863232     0.00000000
       -2.88650692    -1.92434196     5.43509159
PRIMCOORD
6 1
Ti      1.20257837     2.88662240     1.35877261    -0.00016944     0.00016944     0.00000000
Ti      1.68385126    -0.96233201     4.07631823     0.00016944    -0.00016944     0.00000000
O       0.40094037     0.96215304     0.88533187    -0.00064869    -0.00095928    -1.73537315
O       2.48548907     0.96213727     4.54975903     0.00064869     0.00095928     1.73537315
O      -0.40090436    -0.96212903     3.60287755    -0.00095928    -0.00064869    -1.73537315
O       3.28733373     2.88641930     1.83221341     0.00095928     0.00064869     1.73537315
