# total energy = -19889.05046967 eV

CRYSTAL
PRIMVEC
        9.04333337     0.00000000     0.00000000
        0.00002847     3.65080201     0.00000000
        0.00000000     0.00000000    13.99682532
PRIMCOORD
24 1
Ti      3.27779039     2.16346184     5.19272239     0.18969915    -0.13904068     2.42472653
Ti      5.76557171     1.48734004     8.80410306    -0.18969915     0.13904068    -2.42472653
Ti      7.79930273     1.48734128     1.80563442     0.18994160     0.13918261    -2.42539630
Ti      1.24405937     2.16346079    12.19119116    -0.18994160    -0.13918261     2.42539630
Ti      3.27777628     0.33806090     1.80569053     0.18969915    -0.13904068    -2.42472653
Ti      5.76558582     3.31274111    12.19113505    -0.18969915     0.13904068     2.42472653
Ti      1.24404526     0.33805959     8.80404695    -0.18994160    -0.13918261    -2.42539630
Ti      7.79931684     3.31274241     5.19277850     0.18994160     0.13918261     2.42539630
O       2.86228226     1.28550942     7.14247281     1.30481708     0.73725408    -2.22896163
O       6.18107991     2.36529246     6.85435264    -1.30481708    -0.73725408     2.22896163
O       1.65945756     1.28552413     0.14410517    -1.30470421     0.73717514    -2.22950079
O       7.38390467     2.36527775    13.85271990     1.30470421    -0.73717514     2.22950079
O       6.18106580     0.53989145     0.14405976    -1.30481708    -0.73725408    -2.22896163
O       2.86229630     3.11091043    13.85276530     1.30481708     0.73725408     2.22896163
O       7.38389056     0.53987675     7.14251827     1.30470421    -0.73717514    -2.22950079
O       1.65947147     3.11092520     6.85430718    -1.30470421     0.73717514     2.22950079
O       0.32858256     2.22062472     3.78089169    -1.77928427     0.53787524     0.16506128
O       8.71477954     1.43017716    10.21593376     1.77928427    -0.53787524    -0.16506128
O       4.85026116     1.43014322     3.21756548    -1.77903487    -0.53790275    -0.16546649
O       4.19310101     2.22065872    10.77925972     1.77903487     0.53790275     0.16546649
O       0.32856845     0.39522372     3.21752078    -1.77928427     0.53787524    -0.16506128
O       8.71479365     3.25557816    10.77930442     1.77928427    -0.53787524     0.16506128
O       4.19308690     0.39525765    10.21597833     1.77903487     0.53790275    -0.16546649
O       4.85027526     3.25554423     3.78084706    -1.77903487    -0.53790275     0.16546649
