# total energy = -19960.82436872 eV

CRYSTAL
PRIMVEC
        7.60600008     0.00000000     0.00000000
        0.00000000     7.60600008     0.00000000
       -1.89786986    -1.89786986     4.85670466
PRIMCOORD
24 1
Ti      3.75857699     6.68559098     1.27539300     0.18216427    -1.19291389    -1.12997918
Ti      3.81579401     2.86334900     1.25622298    -0.21445759     1.44131494    -1.25213825
Ti     -0.04177500     6.54992898     1.19250199    -0.18162717     0.03781554    -0.43685501
Ti      0.06237698     2.77194998     1.23515400     0.13529433     0.18638371    -0.15331854
Ti      5.75061421     2.71636620     3.59587282     0.05283233     2.02310953     0.84227108
Ti      5.69950722    -0.98030176     3.63818779     0.07822096    -2.37538550    -0.22280083
Ti      1.87887124     2.95126423     3.56089679     0.85217986     0.17722415     1.87665892
Ti      1.83758425    -0.89762178     3.63945480    -0.22570772    -0.12083675     0.05844197
O       3.86950302     4.85043100     0.68827100    -0.03366527    -0.96948520     1.01678220
O       3.81064401     0.98197300     0.78766499     0.22410772     0.64390834     0.54146527
O       0.00492701     4.69265299     0.68388000    -0.14173931    -0.91326544    -0.00755390
O      -0.13311401     0.82573300     0.86101002     0.28978760     1.36921501    -0.10624882
O       5.65344922     4.66721624     4.07862482     0.33390929     0.21749253    -0.13236738
O       5.95394924     0.77265424     4.13408884    -0.44977456     2.10904868    -0.83804419
O       1.82106222     4.75614823     4.10830081     0.43880700     1.75798807    -0.19114951
O       1.70048823     1.04371825     4.06562182     0.77845062    -0.99614189    -0.19813931
O       3.77756022     3.06269324     3.17753381     1.59619260    -1.43770614    -0.31364951
O       3.81375520    -0.95516277     3.23412381    -0.55442518     0.45751589     0.07710793
O       0.09628020     3.06453023     3.20982679    -2.36863789    -1.02095125    -0.55294114
O       0.02312325    -1.08663876     3.27533280    -0.67041154     0.04704169    -0.30009490
O       5.69786497     6.45456002     1.63525899    -0.07060509     0.77170584     0.77007731
O       5.82055001     2.91495600     1.65143398    -1.24843097    -0.55895572    -0.06235262
O       1.82539602     6.73772198     1.62107100     1.12042752    -0.24639096     0.49820490
O       1.93173102     3.18623200     1.55576101     0.07710793    -1.40773093     0.21662349
