# total energy = -19072.09177466 eV

CRYSTAL
PRIMVEC
        7.60600008     0.00000000     0.00000000
        0.00000000     7.60600008     0.00000000
       -1.89786986    -1.89786986     4.85670466
PRIMCOORD
22 1
Ti      3.72099900     6.47448498     1.20529300    -1.66102890    -1.58913389     0.11949284
Ti      3.71250899     2.67096602     1.18669798     0.50358725     3.66184130    -0.08608776
Ti      0.01498402     6.74379101     1.20834302     0.76779622    -0.60677800    -2.16795962
Ti     -0.10760798     2.99348897     1.15054099    -0.46912803    -0.75459540     1.81734098
Ti      5.64829424     2.94878323     3.52159782     2.30525144    -0.28271398     0.52432269
Ti      6.17230720    -0.76290680     3.66588482    -0.85954710    -1.48678415     0.04669639
Ti      1.95107022     2.61387923     3.56110481    -1.74391539     2.56891045     0.49939712
Ti      2.01407423    -1.12995679     3.84561082    -1.79051999     0.10025686    -1.21607234
O       3.28788203     4.63058299     0.64394198     1.60159706     0.04770529     0.21784631
O       3.76757999     0.89900399     1.12008700     0.27822946    -1.96754102    -1.40315230
O       0.09445301     4.66333298     0.68858999    -0.49977867     4.18972985    -0.99720942
O       7.23820999     1.26597301     0.47610998    -0.23233011    -3.47242163     2.81588428
O      -1.10990578     4.96208020     4.25191883    -2.18499575     1.09757401     0.44581146
O       5.56451024     0.98270422     3.90385980     0.80511709     2.77608436    -1.60054651
O       1.71652421     4.61548122     4.20868182     1.43320594     1.90697507    -0.93116906
O       1.93654923     0.84812624     3.87053581     0.44439812    -1.66797037     1.04607633
O       3.81376922     3.03700322     3.12875679    -1.14200037    -0.28946081     1.21613842
O      -0.08610878     3.16214120     3.11503279     0.58315110    -2.26841060    -0.92732629
O       5.40231302     6.55840799     1.96185703     1.92018334    -0.41812478    -0.36123627
O       5.57141198     3.36403698     1.57574602     0.30464164    -1.34070301    -0.14418623
O       1.66166297     6.42117100     1.93092101     1.34091924     0.69236183     0.88440454
O       1.92001900     2.79078599     1.60850400    -1.70483383    -0.89680214     0.20153420
