# total energy = -19960.56681191 eV

CRYSTAL
PRIMVEC
        5.93400000     0.00000000     0.00000000
        0.00000000     9.29699974     0.00000000
        0.00000000     0.00000000     4.64899994
PRIMCOORD
24 1
Ti      4.45104500     7.03631299     2.42204798    -1.11764199    -0.50579557    -0.70034768
Ti      4.46760798     2.30794900     2.34481302     0.23962742    -0.94003937     0.87526838
Ti      1.47094802     7.00504999     2.29828400     0.90232205     0.57606102     0.15448633
Ti      1.48213102     2.41312901     2.26014101     0.16444062    -1.48300720     0.65174198
Ti      2.93305799     4.61025602     0.06382698     1.51414095     0.13232882    -0.25532658
Ti      2.95540800     9.24304901     4.61780701    -0.81612398     0.70143885    -0.17299366
Ti      0.03845499     4.72378899     4.63415499    -1.33182473    -0.49271996    -0.15780306
Ti      5.92331898     9.28044401     0.03718899     0.72539820     0.66633223    -0.00987715
O       4.31830301     5.54371098     0.91459302     0.77386660     0.02543799    -0.01244903
O       4.43906702     0.87975400     0.82786701     0.55696749     0.19496811    -0.29932306
O       1.46885603     5.45367200     0.99904500    -0.05592640     0.03385141    -0.49854017
O       1.52226800     0.87129802     0.83773802    -0.33332874    -0.16947047    -0.86249153
O       4.49986102     8.37093098     3.68889498     0.01980162     0.21401176     0.49424232
O       4.46009901     3.72737098     3.81177200    -0.20422434    -0.29986530    -0.67744968
O       1.53605699     8.24454001     3.72321398    -0.51347315     1.47762536     0.89651495
O       1.39235202     3.67178700     3.71594102     0.40583876     1.06494438     0.79520342
O       2.85334897     6.16953098     3.20140298     1.63963372    -1.60668965     0.84441178
O       2.90920400     1.29257798     3.13093102     1.08109863     0.57772298     0.22113244
O       0.05471201     6.16691001     3.34506402    -0.83308864    -0.82337552    -0.35968975
O       0.06762298     1.34506099     2.97554198    -0.78800999    -0.72137160     1.86605672
O       3.00590802     7.96724902     1.48739300     0.07677240    -0.45937840    -0.61210713
O       3.03447799     3.21146402     1.47617502    -0.17361329     0.76580387    -1.13510596
O       0.01014602     7.90138100     1.38093201    -0.59350416    -0.32897046    -0.06625324
O       0.06059799     3.15703898     1.40292499    -1.33914878     1.40015671    -0.97930065
