# total energy = -19943.97838348 eV

CRYSTAL
PRIMVEC
        5.93400000     0.00000000     0.00000000
        0.00000000     9.29699974     0.00000000
        0.00000000     0.00000000     4.64899994
PRIMCOORD
24 1
Ti      4.51926399     6.39743201     2.43856799    -0.76849222     6.28448320    -1.46709669
Ti      4.41758698     2.56506802     2.32259800    -1.47127473    -0.04645497    -0.91203825
Ti      1.54375302     5.76522601     2.36332100    -0.19878749     6.70435581    -0.37719537
Ti      1.43953802     2.60974799     2.16041100     0.99721430    -1.80440292    -0.48961304
Ti      2.94661599     4.50694999     0.05964198     1.74551667     4.24127124    -0.43611865
Ti      2.96831998     0.77452398     4.55949199    -4.05959856    -7.97259997     0.93040545
Ti      0.08411003     4.31538898     4.59539302    -2.92567840     4.16182643    -1.18304419
Ti      5.86003198     0.79856101     4.36459099     0.52101137   -10.21674706    -0.34742353
O       4.54377898     5.57321902     0.89920402     0.41564032    -3.68473801    -1.81916158
O       4.45209701     1.21091101     0.86261702    -0.65221301     1.54765478     2.06483572
O       1.38340501     5.52820302     0.60269299    -0.27828268    -1.56065171     0.81524595
O       1.24270699     1.29941199     0.79855800     3.36893058     2.81753519     3.47009581
O       4.74473800     8.35161400     3.85865499    -0.48914304     3.57332667     0.62536503
O       4.34312502     3.59546699     3.92240402     0.87647551    -1.23522192    -0.71155795
O       1.43715302     9.03519999     3.85631899     1.00104962     0.41587532     0.43925360
O       1.50780199     3.52210498     3.90043099     1.53305040    -1.29011782    -1.62355378
O       2.98513797     6.01349401     3.65341201    -0.18406252    -0.95271235    -1.06511639
O       2.92974502     1.64551502     3.13624703     0.28688354     1.73733285    -3.80394237
O       5.91306199     5.70061902     3.47233401     0.45644657    -1.11723807    -0.59196921
O       5.87059102     1.66064198     2.87933899     0.61134737     0.53620299    -0.90253853
O       2.98180199     7.20530601     1.41087000    -0.67274610    -0.62347321     2.46581252
O       2.94826998     3.79449802     1.74754199    -0.80796304    -1.00558916     1.29467871
O       0.11852200     7.24703100     1.83907002     1.10735732    -0.19508381     0.46817749
O       5.86166698     3.46790199     1.46571599    -0.41268175    -0.31483350     3.15649953
