# total energy = -19517.94808965 eV

CRYSTAL
PRIMVEC
        7.60600008     0.00000000     0.00000000
        0.00000000     7.60600008     0.00000000
       -1.89786986    -1.89786986     4.85670466
PRIMCOORD
23 1
Ti      3.81424601     6.61292902     1.25955298    -0.64433926    -0.82149630    -0.42952994
Ti      3.74882499     2.64171099     1.24643298    -0.03243062     1.38031653     0.83625881
Ti     -0.11002500     6.76707401     1.08271301     0.71057682     0.23622713     0.55132186
Ti     -0.06653298     2.91528197     1.18050200     0.35781387    -0.63145983     0.53957628
Ti      5.66144821     2.86416525     3.74859581    -0.71495978     1.06660892    -1.25567968
Ti      5.80618221    -0.85985678     3.53867082    -0.16985151    -0.24600016     0.50003090
Ti      2.03571525     2.78637625     3.72070679     0.69680727    -0.31446017     0.73809457
Ti      1.97865523    -1.01800680     3.63499283    -0.90218269     0.18033621    -0.86448311
O       3.99379897     4.58730502     0.92017500    -0.16107942     1.11483589    -0.18986138
O       3.41336699     0.86002897     0.85132602     1.03730681     0.18144539    -1.28083022
O       7.13947001     4.87912902     0.74585999     0.77510330    -0.31755656     0.82685191
O       0.02589301     0.96311699     0.62543898     0.95421438     0.75909664     0.22944353
O       5.81611122     4.85054922     3.82742480    -0.23693393    -1.02050722     0.53213165
O       5.71692821     1.05344522     4.18530981     0.90762623    -0.44041677    -0.99789590
O       2.01548321     4.61929421     4.05830780    -0.32380999     1.56447777     0.54660182
O       1.79123324     0.88364721     4.13292682     0.00290046    -0.46438331    -0.45780000
O       3.85812920     2.78532123     3.20780782    -0.38341976    -0.22127591    -0.06770900
O       3.82443923    -0.70253979     3.22072679    -0.61763217    -0.95520812    -0.06304322
O      -0.01797276    -0.93246080     3.07866979     1.41746513     0.15748167    -0.14638427
O       5.72689299    -0.38878102     1.54850302    -0.78400832    -1.44386934     0.26779386
O       5.88424501     2.42376902     1.81066997    -0.43725456     1.00125685    -0.33412064
O       1.94238299     6.54438601     1.48860201    -0.44302078    -0.55541968     1.25979397
O       1.82615201     2.94146598     1.79639499    -1.00889174    -0.21003041    -0.74056283
