# total energy = -39482.87843246 eV

CRYSTAL
PRIMVEC
        7.60629642    -0.00000847    -0.00005503
       -0.00000847     7.60629642    -0.00005503
       -3.80314186    -3.80314186     9.70738094
PRIMCOORD
47 1
Ti      1.90154175     4.66202726     6.12013533     0.00002031    -0.01177489    -0.00826559
Ti      3.84556030     6.65572470     1.17048926    -0.05253871    -0.00017535     0.03149294
Ti      1.90147679     1.04246383     6.12030004    -0.00006608     0.01245854    -0.00843708
Ti      3.79355094     2.85253418     1.22996500    -0.07044003    -0.00028668     0.05032139
Ti     -1.90164146     4.76256647     6.05764254    -0.00003394     0.06551533     0.04857716
Ti     -0.04250495     6.65568806     1.17054348     0.05220807    -0.00014604     0.03120960
Ti     -1.90169517     0.94254996     6.05762069    -0.00002391    -0.06572436     0.04879853
Ti      0.00924521     2.85253533     1.23005389     0.07037112    -0.00008279     0.05032962
Ti      3.81225824     0.93688263     8.50541905    -0.03425791    -0.00988461    -0.03103940
Ti      5.70503047     2.85223295     3.64228459     0.00010336    -0.00011416    -0.00340260
Ti      3.81227503    -2.83869502     8.50541608    -0.03390592     0.01023814    -0.03100777
Ti      5.70470762    -0.95096758     3.64629938     0.00017021     0.00002237    -0.15283080
Ti     -0.00893786     0.93687641     8.50545094     0.03425173    -0.00981005    -0.03114661
Ti      1.90188984     2.85212244     3.69407618     0.00031496    -0.00005965     0.07749848
Ti     -0.00880611    -2.83873239     8.50539333     0.03400157     0.01022811    -0.03087202
Ti      1.90156246    -0.95085603     3.45852837    -0.00017175    -0.00026739     0.02688501
O       1.90163690     2.85224277     5.69571667     0.00024246     0.00058081    -0.03785771
O       3.80084192     4.74955564     0.78667910     0.00107138     0.00358926     0.00354221
O       3.80088971     0.95520945     0.78670959     0.00113334    -0.00359440     0.00345196
O      -1.90154847     2.85239421     5.68193890     0.00004937    -0.00002083     0.01013375
O       0.00236788     4.74954573     0.78673077    -0.00119042     0.00347793     0.00354324
O      -1.90158797    -0.95075682     5.61911884     0.00003060    -0.00014013    -0.01604369
O       0.00235382     0.95521907     0.78675563    -0.00118759    -0.00341623     0.00347073
O       3.77949421     2.85237076     8.87725401     0.01474220     0.00010027     0.01547265
O       5.70468005     4.74858994     4.06184135    -0.00001311     0.01872869     0.00974423
O       3.83124859    -0.95080198     8.93800157     0.02671017     0.00006402    -0.01082332
O       5.70467487     0.95613782     4.06187065    -0.00006016    -0.01863896     0.00985093
O       0.02363227     2.85238246     8.87723479    -0.01451208     0.00005142     0.01549270
O       1.90139007     4.87269674     4.13743821    -0.00040238    -0.00237056    -0.02512432
O      -0.02816943    -0.95080869     8.93801210    -0.02652145     0.00010516    -0.01081612
O       1.90140331     0.83207941     4.13732651    -0.00044352     0.00174758    -0.02526907
O       1.90157357     0.91821617     8.09395188     0.00008099    -0.02191918     0.00493883
O       3.78376341     2.85241043     3.26494482    -0.01533432    -0.00004654     0.01586140
O       1.90160491    -2.81985878     8.09393937     0.00011904     0.02181736     0.00499257
O       3.82425657    -0.95070739     3.17274684     0.00269555    -0.00010876     0.01412153
O      -1.90156648     0.97518875     8.04867663    -0.00001954     0.02705419     0.01677311
O       0.01932272     2.85241010     3.26492623     0.01517286    -0.00003960     0.01569042
O      -1.90154373    -2.87666409     8.04866080     0.00004294    -0.02711975     0.01669032
O      -0.02117244    -0.95070141     3.17280136    -0.00263332    -0.00009899     0.01416447
O       3.77975576     4.88215195     6.47005208     0.01054950     0.00611563    -0.02577120
O       5.70469964     6.65544072     1.58842250    -0.00013293     0.00001286    -0.01620670
O       3.77976967     0.82253223     6.47010903     0.01059269    -0.00611743    -0.02588408
O       5.70469662     2.85234314     1.66983274     0.00005502     0.00007533    -0.02552438
O       0.02340578     4.88215393     6.47008550    -0.01034587     0.00620433    -0.02585785
O       1.90155900     6.65549469     1.56613249    -0.00005116    -0.00000077    -0.00623390
O       0.02335379     0.82252841     6.47013619    -0.01049962    -0.00621076    -0.02595632
O       1.90158018     2.85234213     1.67254999     0.00005656    -0.00001800     0.03132222
