# total energy = -19073.03892853 eV

CRYSTAL
PRIMVEC
        5.17600016     0.00000000     0.00000000
        0.00000000     5.50899976     0.00000000
        0.00000000     0.00000000     9.26300011
PRIMCOORD
22 1
Ti      1.73514500     3.40767998     3.21290899     0.93067927    -0.04840875    -0.40223998
Ti      3.70265798     2.31634900     5.99160899    -1.36233911    -0.05358695    -0.40474038
Ti      4.33533500     2.09150201     1.19879100     0.57092472     1.82287219    -0.48041723
Ti      0.81866001     3.27958701     8.18514098    -0.22597485    -0.68973673     0.44034375
Ti      1.75057798     0.44462002     1.32418902     0.65886600     0.91096970    -1.33944394
Ti      3.19568300     5.13604998     8.03355101     0.92346501    -2.00135490    -0.47188939
Ti      0.54528900     0.25099999     6.03543503     1.77870294     1.50902703    -1.97001982
Ti      4.32064398     4.98065401     3.45436500     1.46056789    -0.84129895     0.92466057
O       3.31696201     3.39838000     4.38813900     0.90620133     0.11752877     1.96985836
O       1.04035602     2.07513398     0.37967700    -1.01627390    -0.14718131    -1.42475498
O       4.29720799     3.83552899     9.00203899     1.33478099    -0.68471768     0.70966716
O       3.41697799     0.89153698     0.11772299     0.21255935     0.30080504    -0.72467906
O       1.53207900     4.82853899     8.99374599    -0.14996505     1.44194744     0.54980696
O       4.61296398     1.02706002     4.65636398    -1.02975625    -1.22498096    -0.02733726
O       1.03607900     4.71551599     4.26061501    -1.49945558     0.38155982     2.08863746
O       0.10959398     3.50419201     2.27888198    -0.48890213    -0.17877684     0.91650811
O       0.33363800     2.29611501     6.43139100    -0.20629511    -0.17539558     1.70267488
O       2.77158299     1.94329597     2.30957998    -0.34450250    -0.70210683     0.09424022
O       2.65474399     3.19423501     7.61648801    -0.68731809    -0.19125852    -3.21403981
O       0.05086700     0.62834501     2.01172399    -0.39376254    -0.55590768     1.25920904
O       2.49293497     0.59677102     6.33685899    -0.38981512     0.02427277     0.99812216
O       2.83306598     4.66167400     2.31999398    -0.98238700     0.98572969    -1.19416628
