# total energy = -19516.22220045 eV

CRYSTAL
PRIMVEC
        5.17600016     0.00000000     0.00000000
        0.00000000     5.50899976     0.00000000
        0.00000000     0.00000000     9.26300011
PRIMCOORD
23 1
Ti      1.90655298     3.23835199     3.38955798    -0.12285584    -1.49763189     4.46310918
Ti      3.35476500     2.24177798     5.79498699    -0.76959677     1.15814048    -2.21940895
Ti      4.34456898     2.13396298     1.58055301     0.19647323    -1.65811250     1.16028324
Ti      0.79735798     3.34008600     7.81046401     0.34539878     0.55265574     0.61757947
Ti      2.06731798     0.16571201     1.28397298    -1.89839838     1.24478283    -0.35828901
Ti      3.40549400     5.20466400     7.87834798    -1.64182353    -1.57250450    -0.09812053
Ti      0.69387399     0.56184400     5.78631102     0.57714011     0.16291878    -2.24661226
Ti      4.53010599     4.95568499     3.38424700     0.87958475     0.27043542     2.93128083
O       1.66643102     1.92145201     4.81699203     0.07706730     0.15999852    -0.31129232
O       3.55293998     3.72944499     4.68712002    -0.13937853    -0.71224263    -1.28724616
O       4.79229897     2.98883698     0.17538199     0.89849187     1.13952620    -2.86337746
O       3.55398002     0.54225999     0.23649302     1.15419435     1.28268862     0.20921666
O       1.51643700     4.88328502     8.98329701     0.83136754    -1.17622434     0.19821850
O       4.22366701     0.87185598     4.75362802     0.74965323    -1.22565536    -1.95052674
O       0.85657101     4.64828799     4.53423098     0.39219185     0.79763183     0.29770660
O       0.22299699     3.16506099     2.81654702    -2.50132409     0.50290976    -1.90081650
O       4.99143001     2.08250002     6.64398098     1.57756135     0.72933636     2.85883920
O       2.57173000     1.89386701     2.33696300     0.89459357    -0.35827667    -1.97510933
O       2.58535499     3.52036399     6.94367300    -1.39747325     0.15849751     3.11649289
O       0.25504301     0.68611799     2.01409100     0.20054406    -1.18501212     0.08883910
O       5.13177798     4.81597098     7.14068400    -0.96807469     0.31707036    -0.28375296
O       2.53059599     0.64825801     6.64940700    -0.72957573     0.00183448     1.33641004
O       2.71718198     4.67730998     2.64209702     1.39423931     0.90723337    -1.78342374
