# total energy = -19515.56578063 eV

CRYSTAL
PRIMVEC
        5.93400000     0.00000000     0.00000000
        0.00000000     9.29699974     0.00000000
        0.00000000     0.00000000     4.64899994
PRIMCOORD
23 1
Ti      4.31247200     6.89597402     2.40070298     1.28116653     0.77982282    -2.47678419
Ti      4.52600100     2.43830499     2.31026600    -1.14583363    -1.54313478    -0.17929980
Ti      1.53508901     6.94833399     2.42836498    -1.41207738     0.89603853    -2.47565547
Ti      1.45093501     2.24835899     2.32206200     0.39292102    -0.19859080     0.26220428
Ti      2.87918002     4.55679398     4.60728898    -0.25155117     0.29793363     2.40784955
Ti      2.92113298     0.08665500     4.53643997     1.24797511     0.18821871     1.02259213
Ti      5.86712697     4.75799802     4.56185498    -0.24778425    -0.31752930     2.10067228
Ti      5.92656501     9.17090199     4.64651599    -1.35524543     0.55784500     0.96535086
O       4.43787600     5.49418402     1.05443499     0.10557493    -0.25252228    -1.00001475
O       4.64547398     0.95715602     0.89925699    -0.18332692    -0.95253571     0.16981757
O       1.49451901     5.58774499     1.06233799     0.36925477    -0.59681471    -1.24225492
O       1.61684298     1.13372601     0.78604603    -0.50728218    -1.43051116     1.10992096
O       4.56713501     8.22230499     3.65703899    -0.06794477     1.20540689     1.33092639
O       4.28658798     3.72612001     3.83151201     2.17142701     0.86425299    -0.84767683
O       1.58221399     8.70296399     3.44235299    -0.72535398    -1.58603571     0.92942766
O       1.46861102     3.80598598     3.74603300    -0.15095029    -0.48354627    -0.01945632
O       3.16702699     1.52175502     3.40912400    -0.81173639     0.03758671    -1.53983683
O       0.13665500     5.88621302     3.20574901    -0.91594401     1.20428691     0.48345036
O       5.89521898     1.44735100     3.40651499     0.90338366     0.74665198    -1.82389575
O       3.00309100     7.93709999     1.34885799     0.05155321    -1.19278096     0.91480913
O       3.00837002     3.28524699     1.39960498    -0.40795683    -0.79713946     1.09363148
O       5.88391602     7.62138099     1.37254100     0.87695811     1.97166713    -0.56500450
O       0.05100798     3.23539801     1.55528099     0.78277290     0.60142908    -0.62077303
