# total energy = -4985.82885707 eV

CRYSTAL
PRIMVEC
        3.29316226     0.00000000     0.00000000
        0.00000000     3.43992769     0.00000000
        0.00000000    -0.00006012     4.47907212
PRIMCOORD
6 1
Ti      1.64658098     1.71993374     2.23953601     0.00000000     0.00000000     0.00000000
Ti      0.00000000     0.00000000     0.00000000     0.00000000     0.00000000     0.00000000
O       1.64658098     0.67037952     0.87290517     0.00000000    -1.65393703    -1.76993599
O       1.64658098     2.76948796     3.60616681     0.00000000     1.65393703     1.76993599
O       0.00000000     1.04953017     3.11244216    -0.00000000     1.65358710    -1.76925542
O       0.00000000     2.39033731     1.36662987    -0.00000000    -1.65358710     1.76925542
