# total energy = -39022.57081618 eV

CRYSTAL
PRIMVEC
        5.93200024     0.00000000     0.00000000
        0.00000000     9.29399984     0.00000000
        0.00000000     0.00000000     9.29399984
PRIMCOORD
46 1
Ti      4.46621800     6.91915198     6.83534301     1.59650782     3.31330525     1.58128380
Ti      4.21475000     6.60377499     2.22830999    -1.12866663    -0.95937973     0.05046435
Ti      4.57485200     2.60985399     6.75985900    -1.31312689    -0.94424673     0.32186264
Ti      4.47284599     2.47905100     3.80157798    -2.17710915    -1.47375225    -1.54174176
Ti      1.57543301     7.36342798     6.82898198    -0.47466002    -2.43315718    -2.92235088
Ti      1.21745402     7.02281701     1.95850199    -0.80883747     0.66719072     2.54661769
Ti      1.48558099     2.19843598     7.84514301     0.52781296    -0.11250483     1.96277574
Ti      1.42447398     2.40108197     3.91822601     1.65271370    -3.96997939    -0.38007167
Ti      3.00679101     5.18656000     4.85792002    -2.38019218     0.92809248     1.00661606
Ti      3.00909499     4.79289202     8.82772001    -1.53169645    -0.36467821     1.55762270
Ti      2.97249403     8.83817301     4.02660399    -2.42185821     0.70209603    -0.63743250
Ti      2.89211301     0.04965900     0.03742199     1.60621991     1.35355236     1.11688917
Ti      5.88406202     4.74499698     4.59880399    -0.00412431     4.00489781    -0.64693710
Ti      5.91932100     5.11705399     9.25022497     0.78169947    -0.26131828     0.29241398
Ti      5.84945499     9.09148699     4.28302599     1.64780777    -0.48953822     1.34784734
Ti      0.01250800     8.81410100     9.19336699    -3.20610024     2.20886306    -0.85808723
O       4.69314502     5.37964101     5.92854000    -0.63301149    -1.45829272    -1.55713136
O       4.29438599     4.95335598     0.95572502     0.33745407     0.75442751     0.46485717
O       4.60046201     0.82109201     4.98657000    -2.14513901     0.98029618     1.82851165
O       4.49565401     0.31082300     0.74307302     2.58614456     1.07538204     0.98533117
O       1.26859699     5.83967903     5.57637699     0.83637477    -0.60844819    -0.04070238
O       1.89630398     5.74799002     1.06343698     0.53764924    -3.75334150    -4.05304328
O       1.70812998     0.79580400     4.85779000    -1.47400345    -1.11264942     3.72909033
O       1.21713202     1.18220902     0.21261501     0.69993862    -2.18311628    -0.19991543
O       4.52205101     8.46098298     7.99031199    -0.16481343    -0.37148212     0.82032825
O       4.49691202     8.37234002     3.11159599     2.54953358    -1.28193169     0.62219125
O       4.54833599     3.96959398     8.13407299     1.48786581    -1.04311134    -0.76455586
O       4.10528101     4.47887999     3.64982799     2.31358721    -0.54376435    -3.58708336
O       1.95930999     8.22429798     8.28833298    -1.89859532     0.58068824     1.07655549
O       1.18407902     8.70134000     2.98053302     0.17538324    -1.51609319     0.01492809
O       1.35922802     3.59245100     9.08636799     0.01250431     2.10019405    -0.98666198
O       1.55104202     4.15296401     3.94244999     3.58518589     0.73511081    -2.58614379
O       2.90735802     6.06270300     7.48279799    -0.04899933    -1.24198316     1.54028060
O       2.64599097     6.49904901     3.46821801     1.37834963     0.66213387    -0.04898468
O       3.19241199     1.55211000     7.94563901     0.73733455     0.10085284    -1.37232554
O       2.98782799     1.20127702     3.15264602     1.49639159     4.27399779    -2.31358515
O       0.09849100     6.29272900     7.90067799     1.13195944    -1.16849457    -1.03451794
O       0.10496300     5.75929801     2.95731500    -1.49662325     2.43135946    -0.49902200
O       5.91589198     1.44551698     7.23795201    -0.74083254    -0.04544349     0.11477640
O       3.43420298     7.81900298     5.62508802    -2.21611177    -0.12520789     0.13291066
O       2.84749601     7.90439901     1.51793298     1.35788133     0.44970256    -1.98999525
O       3.43041602     3.10309201     5.14302400    -2.24511588    -0.85749716     4.83242875
O       0.11137699     8.04671001     6.15287300    -0.54546617     1.26766437    -2.88436281
O       5.61309099     7.08153701     0.63940598     0.21436915     0.87006652     3.24910710
O       0.18903698     3.08091398     5.29603502    -2.24052389    -1.86979459     2.24716788
O       5.85606997     1.48881400     3.24610999     2.04493871     0.72933328    -2.53820607
