# total energy = -4988.95410265 eV

CRYSTAL
PRIMVEC
        3.11578226     0.00000000     0.00000000
        0.96672540     4.78529120     0.00000000
       -0.00000644    -0.00006392     4.90680338
PRIMCOORD
6 1
Ti      2.04125056     2.39261364     2.45340180     0.00000000     0.00000000     0.00000000
Ti      0.00000000     0.00000000     0.00000000     0.00000000     0.00000000     0.00000000
O       1.74629037     0.93257036     0.95626377    -0.09034551    -0.08389770    -0.21284911
O       2.33621075     3.85265692     3.95053983     0.09034551     0.08389770     0.21284911
O       0.29495755     1.46001739     3.40966645     0.09005035     0.08412216    -0.21319235
O       0.67176140     3.32520978     1.49713715    -0.09005035    -0.08412216     0.21319235
