# total energy = -19074.33474065 eV

CRYSTAL
PRIMVEC
        7.60600008     0.00000000     0.00000000
        0.00000000     7.60600008     0.00000000
       -1.89786986    -1.89786986     4.85670466
PRIMCOORD
22 1
Ti      3.89718603     6.44330400     1.35532099     1.38125421    -0.93766419    -1.65064910
Ti      3.74692302     2.59072598     1.13960998     0.34137244     1.40566350     0.91967777
Ti      0.31261998     6.77413900     1.04054202    -3.05043248     0.76536550     0.73296548
Ti     -0.03469598     3.03010201     1.03317598     0.25492934    -0.71730899     0.85980293
Ti      5.69543425     3.09719824     3.46731280    -0.49757472    -0.30381452     0.75919022
Ti      6.06970222    -0.64955576     3.66907084    -0.18743400    -2.48220459    -0.77010199
Ti      1.81880724     2.73521423     3.61875079     0.27156747     0.51237194     0.07361868
Ti      1.17766921    -1.21740079     3.89958881     2.05510872     0.37180711    -0.55565982
O       4.13442598     4.64913801     0.83395900    -0.90640213    -0.18792123     0.28082885
O       3.93419001     0.72139798     0.75548398    -0.75895034     0.83542886     1.58373791
O       0.14377000     4.88297699     0.51022598    -0.24853424     0.13212236     1.37395202
O       0.18234998     1.13307200     0.91839299     0.20790514    -0.97474876    -0.89234693
O       5.70527023     5.00830024     4.06567580    -0.07609517     0.22657855    -2.31068624
O       5.42586221     1.03042521     3.99869683     0.30382943     0.75952370    -0.36584575
O       2.07681724     4.56644321     4.23695581    -1.52612076     0.85092053    -0.46938282
O       1.51480623     0.83363023     4.15520581    -0.09069518    -0.56893649    -1.08240449
O       3.70171022     2.83179521     3.01547481     0.44217360    -0.16280694     1.11621143
O      -0.02682976     2.93807824     3.31381081     0.01126761     0.56190889    -0.36116737
O       5.96062900     6.68714898     1.74983099    -0.51622371     0.05616243     0.81645128
O       5.78830200     2.73243700     1.63240699    -1.00799571     0.17865368    -0.93104437
O       1.78876500     6.47709398     2.09695799     2.20453383    -0.18437799     0.26143887
O       1.77415198     2.95734400     1.56558201     1.39251744    -0.13672335     0.61141319
