# total energy = -4984.53417599 eV

CRYSTAL
PRIMVEC
        3.27218897     0.00000000     0.00000000
        2.41272009     4.52384943     0.00000000
       -0.00001552    -0.00006990     5.30554557
PRIMCOORD
6 1
Ti      2.84244651     2.26188966     2.65277290     0.00000000     0.00000000     0.00000000
Ti      0.00000000     0.00000000     0.00000000     0.00000000     0.00000000     0.00000000
O       2.10629494     0.88161796     1.03397275    -0.61677291     0.77323231     0.25396518
O       3.57859811     3.64216146     4.27157311     0.61677291    -0.77323231    -0.25396518
O       0.73614499     1.38024360     3.68674668     0.61622809    -0.77233808     0.25440767
O       1.67655923     3.14353590     1.61879912    -0.61622809     0.77233808    -0.25440767
