# total energy = -19022.18486099 eV

CRYSTAL
PRIMVEC
        7.60600008     0.00000000     0.00000000
        0.00000000     7.60600008     0.00000000
       -1.89786986    -1.89786986     4.85670466
PRIMCOORD
22 1
Ti      4.23002402     6.45995800     1.44373302    -2.57853306     0.94768532    -1.71747775
Ti      4.78424024     2.81721823     2.62396582   -10.38846853     4.91799741    -0.27637158
Ti      0.16053301     6.19216701     0.37854700    -0.92555737     1.67475886     3.50184252
Ti      0.01023799     2.78391600     0.00438497   -15.17799069     3.54304652     9.23860906
Ti     -0.84129377     2.42246021     4.15278181   -15.68736293    30.20707255    23.48046743
Ti     -1.04780175     1.57517022     2.95070182    -3.50361221   -33.01033811   -30.17319645
Ti      0.72676722     2.29035920     4.15567583    36.16792830     4.02208281     1.85924329
Ti      0.74077724    -0.69331777     4.10972980     3.51669682    -3.14373528     1.73543666
O       4.23924900     4.56499300     2.18842998    -0.30374844     1.63055309    -0.78807092
O       3.86550699     0.71008602     1.00760698    -0.35340572    -1.28989697     0.12087686
O       0.88739098     4.29989298     1.11657098    -1.24189934     1.82259143     0.81921779
O       0.60351798     1.28898598     0.39072998     2.88489709    -8.73720622     6.17439829
O      -1.22999076     4.33151222     3.48542580    -2.98994675     0.25367310     2.25949221
O       3.96403021     0.93591622     3.68981681     3.99929357     0.84233433     0.40376208
O       0.93605121     4.74061323     4.64898481     0.03864421    -0.76925147     1.40110416
O       3.26140099     2.85530502     0.19600799    -0.05457606    -3.42069924    -0.49446703
O       2.64023220     2.95344121     3.43001882    -0.38051544    -1.02550159     0.32501173
O       0.03788099     2.77500402     2.41033803     7.30226273     1.55869819     0.57129419
O       5.76391201     6.46420402     0.69666201     3.84994122    -0.29645782    -0.57087742
O       6.01942699     2.32010002     1.56370703    -5.41392303     1.73590794   -10.81236029
O       0.83854200     6.53081902     2.31346102    -0.08729258     1.78546751     0.62689380
O      -1.19394580    -0.44572176     3.92729981     1.32716769    -3.24878237    -7.68482914
