# total energy = -4966.47664374 eV

CRYSTAL
PRIMVEC
        5.01825385     0.00000000     0.00000000
       -0.00000711     2.70213702     0.00000000
       -2.50915479    -1.35112931     5.41370094
PRIMCOORD
6 1
Ti     -0.00021479     2.02669587     1.35342502    -0.01453265    -0.01753467    25.56949235
Ti      2.50930637    -0.67568800     4.06027549     0.01453265     0.01753467   -25.56949235
O       0.00005327     0.67552367     0.88184758     0.01226160     0.01517466   -17.70869145
O       2.50903820     0.67548409     4.53185303    -0.01226160    -0.01517466    17.70869145
O      -0.00002049    -0.67554199     3.58869806    -0.00186328    -0.00014038    -1.73246420
O       2.50911186     2.02654975     1.82500256     0.00186328     0.00014038     1.73246420
