# total energy = -19073.46238248 eV

CRYSTAL
PRIMVEC
        5.93400000     0.00000000     0.00000000
        0.00000000     9.29699974     0.00000000
        0.00000000     0.00000000     4.64899994
PRIMCOORD
22 1
Ti      4.46843398     6.97853599     2.30613398    -1.69521456    -0.60224566     0.60951057
Ti      4.41992901     2.31208902     2.26994000    -0.81065627    -0.63618243     0.27507369
Ti      1.41946299     7.06721001     2.41139702     2.04544265    -0.57332048     1.95326574
Ti      1.56679499     2.42657699     2.05675401    -0.49745697    -0.56093136     0.96461784
Ti      3.09755898     4.72349000     4.60828103    -1.19323065     0.21728992    -0.84415056
Ti      2.96940702     9.27541201     0.08880499     0.33028429    -0.42105481    -1.48542198
Ti      5.86041500     4.58853102     4.52649700     1.36142637    -0.33217354    -0.50509366
Ti      5.92241600     9.08960798     0.24670900    -0.38601786     0.43420832    -2.00068898
O       4.45728099     5.48490002     1.00201998     0.13889644     0.73674294     0.43638964
O       4.51847398     0.95393698     0.73599999    -0.40397728     0.54817971     0.47359018
O       1.46591200     0.79536600     0.98165698    -0.35256677     1.54972169    -0.58901218
O       4.50713398     8.16682700     3.81939300    -0.52252755     2.52088557     1.72243047
O       4.37638100     3.83866400     3.63268900     0.33565301    -1.48023272    -0.62869795
O       1.35132401     8.36380598     3.73829299     0.61201303     0.50568579     1.29252026
O       1.52256498     3.89268098     3.74362202    -0.26143321    -0.17232645    -0.26786971
O       3.09816198     6.14659400     3.28717801    -2.07575237    -0.90538140     0.35035896
O       2.86632101     1.21216902     3.02213397     0.68779478     1.29272827     1.05552026
O       5.81470699     6.21718900     3.40780798     1.66354704    -1.69018857    -0.58931660
O       2.89327598     8.10739902     1.70783602     0.27937900    -0.91780498    -1.90557356
O       3.06007000     3.12973000     1.32894500     0.25086828     1.50360637    -0.94345123
O       5.93365598     8.01589300     1.64373699     0.05749940    -0.62125537    -0.41036596
O       5.88217598     3.15057598     1.22288603     0.43602892    -0.39595055     1.03636476
