# total energy = -19942.60822819 eV

CRYSTAL
PRIMVEC
        6.73882988     0.00000000     0.00000000
        0.00002652     4.78143515     0.00000000
        0.00000000     0.00000000    10.46963866
PRIMCOORD
24 1
Ti      2.44251753     2.83347402     3.88416127     0.42745634     0.13859100     0.32820633
Ti      4.29633898     1.94796112     6.58547751    -0.42745634    -0.13859100    -0.32820633
Ti      5.81181630     1.94796279     1.35061626     0.42816391    -0.13874038    -0.32830583
Ti      0.92704021     2.83347258     9.11902257    -0.42816391     0.13874038     0.32830583
Ti      2.44250427     0.44275656     1.35065824     0.42747074     0.13973488    -0.32806029
Ti      4.29635224     4.33867875     9.11898060    -0.42747074    -0.13973488     0.32806029
Ti      0.92702695     0.44275478     6.58543548    -0.42824259     0.13948240    -0.32831740
Ti      5.81182956     4.33868054     3.88420324     0.42824259    -0.13948240     0.32831740
O       2.13289160     1.68362462     5.34257649     1.03361625     0.60077730    -0.45729966
O       4.60596491     3.09781058     5.12706229    -1.03361625    -0.60077730     0.45729966
O       1.23658156     1.68364389     0.10779080    -1.03282255     0.59983242    -0.45693534
O       5.50227507     3.09779131    10.36184763     1.03282255    -0.59983242     0.45693534
O       4.60595171     0.70709295     0.10775681    -1.03304367    -0.59997923    -0.45682915
O       2.13290480     4.07434219    10.36188162     1.03304367     0.59997923     0.45682915
O       5.50226181     0.70707374     5.34261042     1.03233378    -0.59985479    -0.45738759
O       1.23659465     4.07436152     5.12702830    -1.03233378     0.59985479     0.45738759
O       0.24485354     2.90833990     2.82811062    -1.25651221     0.34442922     0.59370985
O       6.49400297     1.87309530     7.64152816     1.25651221    -0.34442922    -0.59370985
O       3.61427601     1.87305072     2.40674207    -1.25573933    -0.34416697    -0.59328330
O       3.12458050     2.90838448     8.06289653     1.25573933     0.34416697     0.59328330
O       0.24484028     0.51762227     2.40670860    -1.25635049     0.34455495    -0.59353039
O       6.49401623     4.26381288     8.06292995     1.25635049    -0.34455495     0.59353039
O       3.12456729     0.51766685     7.64156152     1.25589566     0.34389315    -0.59374250
O       3.61428922     4.26376835     2.82807720    -1.25589566    -0.34389315     0.59374250
