# total energy = -19068.43870882 eV

CRYSTAL
PRIMVEC
        5.93400000     0.00000000     0.00000000
        0.00000000     9.29699974     0.00000000
        0.00000000     0.00000000     4.64899994
PRIMCOORD
22 1
Ti      4.42729600     6.50177798     2.57014098    -0.27596637    -0.92570418     0.63551703
Ti      4.49043902     2.70369199     1.91477300    -3.43333365     0.83051754     1.06699150
Ti      1.67095199     7.78440097     2.42663499     0.90186953    -1.57158816     1.59971733
Ti      1.60877001     2.39925600     1.92975200     1.13073457     0.29011259     1.70170248
Ti      2.80389403     4.45113703     4.24281201     0.08094761    -0.59048234     0.58912686
Ti      3.06342599     0.05659799     0.09448402     2.24730389    -0.63523781    -1.01864523
Ti      5.79084602     4.61672601     4.61232198     0.29938990    -1.71520052     1.24160135
Ti      5.90787198     9.16017499     0.49223200    -2.09971377    -0.26562771     0.91556298
O       4.30668100     5.02568302     0.99940400    -0.57777080     0.85501065     2.98422424
O       4.29398800     0.72856700     1.15577201     1.58829365     1.77935883     1.11057814
O       1.71971499     0.33806499     1.42976401    -1.01902652     1.73436193     2.61534845
O       4.47461202     8.18214499     4.12967598     0.18375964     0.96042797    -0.64955115
O       4.40873802     4.11327000     3.51150598     1.67356535    -1.34108354    -2.87736735
O       1.45843298     8.55918399     4.16398100    -0.16458306    -1.68512272    -3.54202862
O       1.25578402     3.91159600     3.50716202    -0.65858935    -2.56234693    -1.64407967
O       2.59299498     5.99483898     3.30691299     1.02753096     2.27900200    -0.53868616
O       3.14301197     2.27045600     3.08114401    -1.86064660    -3.02387041     0.45054872
O       0.02414101     5.93735800     3.60563100     0.52424967     4.60356063    -1.67140845
O       3.38668497     7.63775702     1.68147701    -1.69444837     1.42862475    -1.52574897
O       2.85525602     2.74306902     0.67572998     0.25767091     0.35758736     0.85719454
O       5.88944402     7.89169600     1.84244802    -0.81327546    -1.02977348    -0.64474215
O       5.88704198     2.61825002     0.87581100     2.68203774     0.22747407    -1.65585584
