# total energy = -4986.49271813 eV

CRYSTAL
PRIMVEC
        3.60697111     0.00000000     0.00000000
        1.38729017     3.32951447     0.00000000
       -2.49716413    -1.66477956     4.70198621
PRIMCOORD
6 1
Ti      1.04037012     2.49726403     1.17549631     0.00083381    -0.00083381    -0.00000000
Ti      1.45672714    -0.83252909     3.52648926    -0.00083381     0.00083381    -0.00000000
O       0.34686004     0.83237426     0.76591502     0.00028694     0.00061938    -1.45775176
O       2.15023706     0.83236062     3.93607060    -0.00028694    -0.00061938     1.45775176
O      -0.34682889    -0.83235349     3.11690802     0.00061938     0.00028694    -1.45775176
O       2.84392593     2.49708832     1.58507764    -0.00061938    -0.00028694     1.45775176
