# total energy = -19517.27440419 eV

CRYSTAL
PRIMVEC
        5.17600016     0.00000000     0.00000000
        0.00000000     5.50899976     0.00000000
        0.00000000     0.00000000     9.26300011
PRIMCOORD
23 1
Ti      1.92496199     3.21742800     3.38331798    -1.30382695     0.03608313     2.59391726
Ti      3.36665900     2.28293400     5.87152798     0.35266910     0.16160186    -2.57551099
Ti      4.33129499     2.09381298     1.53508298     1.40015260    -0.91923528    -0.87263145
Ti      0.86345201     3.36759602     7.76729601    -1.38062635     1.08332135     0.74860473
Ti      1.90392498     0.22921799     1.31192798     0.81593963    -0.64474524    -0.35653167
Ti      3.24696398     5.27762701     7.89081799     0.12088355    -0.98994219     1.94617772
Ti      0.79320299     0.58355201     5.91252202    -0.96106252    -1.19986641    -3.23421064
Ti      4.45707402     4.87924401     3.40289098     1.47336556     0.49910993     2.91370065
O       1.70097698     1.93179902     4.68997202     0.18673081    -1.08454417     1.21046836
O       3.55099298     3.50951299     4.47270603     0.37012612     0.32906610    -0.15093307
O       5.14005400     2.63702602     9.21788902    -0.07716578    -0.06686028     0.24234225
O       3.72214700     0.44602800     0.33262902    -1.09357363     0.94754031    -0.43272736
O       1.69139998     4.67649002     9.03052698    -0.21411847     0.27293941     0.18917978
O       4.25816900     0.68670400     4.95401798    -0.59912974     0.02223439    -0.85614656
O       0.96113300     4.67034701     4.44894300     0.25392764     0.58664728     0.87317370
O       0.20754199     3.41560398     2.53306301    -0.52734348    -0.98546513    -1.14954039
O       0.00234299     2.23947399     6.48802202    -0.54550422     0.47286847     1.32627295
O       2.52408002     1.81188999     2.27572301     1.13224638     0.09443408    -1.81598832
O       2.51880597     3.71233499     6.91762801     0.52862492    -0.50329749     0.12964201
O       0.22465802     0.60092300     2.21880899    -0.31806769     0.98201085    -0.63757726
O       4.90180898     4.82140002     7.13781702     1.18986328     0.10035199     0.45294627
O       2.36171902     1.09869400     7.07922498    -0.71449004     0.45795221     0.15576263
O       2.86239103     4.54938698     2.34114201    -0.08962098     0.34779454    -0.70039036
