# total energy = -4985.15611721 eV

CRYSTAL
PRIMVEC
        4.02522307     0.00000000     0.00000000
        0.00000000     3.03666597     0.00000000
        0.00000000    -0.00008028     5.32398090
PRIMCOORD
6 1
Ti      2.01261148     1.51829268     2.66199050     0.00000000     0.00000000     0.00000000
Ti      0.00000000     0.00000000     0.00000000     0.00000000     0.00000000     0.00000000
O       2.01261148     0.59178576     1.03756549     0.00000000    -0.79490749     0.91683619
O       2.01261148     2.44479960     4.28641552     0.00000000     0.79490749    -0.91683619
O       0.00000000     0.92647500     3.69955709     0.00000000     0.79484990     0.92033597
O       0.00000000     2.11011037     1.62442392     0.00000000    -0.79484990    -0.92033597
