# total energy = -39040.39370755 eV

CRYSTAL
PRIMVEC
        7.60629642    -0.00000847    -0.00005503
       -0.00000847     7.60629642    -0.00005503
       -3.80314186    -3.80314186     9.70738094
PRIMCOORD
46 1
Ti      1.92048205     4.73704054     6.07330309    -0.00537695     0.00113926     0.02240666
Ti      3.80312515     6.64470736     1.20907361    -0.00006222     0.00359389    -0.01444035
Ti      1.81786313     0.95504381     6.01800510    -0.01120539     0.00211139    -0.02860276
Ti      3.80305823     2.87263117     1.18626994    -0.00000977     0.00956682     0.01292263
Ti     -1.92076529     4.73697305     6.07339900     0.00543814     0.00108141     0.02221511
Ti      0.00000815     6.67464893     1.37063742    -0.00011107     0.00299302    -0.04357713
Ti     -1.81790053     0.95496885     6.01806741     0.01149541     0.00215561    -0.02853540
Ti     -0.00007607     2.79333136     1.16476254    -0.00006428     0.00698158    -0.00862631
Ti      3.80320159     0.93263997     8.63767341    -0.00011081     0.01181808     0.02252493
Ti      5.70992542     2.85948493     3.60680659     0.00407211     0.01242358    -0.00189850
Ti      3.80319701    -2.81376177     8.49683094     0.00005682     0.01451105    -0.00432305
Ti      5.67459056    -0.95603241     3.66479729     0.01175560    -0.01728785    -0.01187439
Ti      0.00015037     0.94778769     8.42925460    -0.00022240    -0.01801110    -0.01863228
Ti      1.89660740     2.85952279     3.60680305    -0.00399472     0.01246291    -0.00190287
Ti      0.00008804    -2.89150879     8.49271408    -0.00005631    -0.00352241     0.00925726
Ti      1.93180837    -0.95596555     3.66480598    -0.01171961    -0.01725879    -0.01194278
O       2.00427595     2.83081002     5.64808115     0.00126987    -0.00533581    -0.02497622
O       3.80316732     4.75423832     0.75512619     0.00002494    -0.01002782    -0.02265220
O       2.05161206    -0.92551854     5.70275839     0.00151001    -0.00310718    -0.01266937
O       3.80315048     0.95412934     0.75836077     0.00005631     0.00700035    -0.00243252
O      -2.00438601     2.83077788     5.64810645    -0.00138403    -0.00541243    -0.02493148
O       0.00005399     4.83347157     0.81453278    -0.00001286     0.01411099     0.01900097
O      -2.05170598    -0.92554378     5.70280522    -0.00157892    -0.00301745    -0.01265060
O       0.00010133     0.86891473     0.78406555    -0.00004679     0.00458454    -0.01116990
O       5.73566212     4.75076285     4.09014802     0.00631309    -0.00454648     0.02054106
O       3.80308464    -0.94881593     8.91338143     0.00006865     0.01330212     0.00334089
O       5.65786496     0.95590309     4.04862260    -0.01090277    -0.00218981    -0.00679646
O      -0.00002972     2.83739008     8.89235219     0.00000720     0.00609712     0.00045097
O       1.87058715     4.75079564     4.09014038    -0.00621487    -0.00450920     0.02059557
O      -0.00004178    -0.92193855     8.82962712     0.00003934    -0.01767506     0.03401442
O       1.94852748     0.95593725     4.04864506     0.01087037    -0.00218415    -0.00691961
O       2.03844315     1.11973014     8.01678404     0.00446292     0.00195738     0.00755339
O       3.80316614     2.89492352     3.15930507     0.00011699     0.00090683     0.02026467
O       1.92037285    -2.96695378     8.09945615    -0.00125316     0.00734282    -0.01974428
O       3.80316982    -0.99196060     3.22691042    -0.00000746    -0.00375407    -0.00020415
O      -2.03850405     1.11977068     8.01670636    -0.00452771     0.00193990     0.00768992
O       0.00002268     2.82402972     3.22251864     0.00002931    -0.01168155     0.02185310
O      -1.92040917    -2.96694931     8.09947172     0.00134443     0.00739295    -0.01989315
O       0.00001196    -0.92565550     3.32504329    -0.00001928     0.01110254     0.02199580
O       3.80308248     4.71163170     6.50062168     0.00002134    -0.00659797    -0.01111925
O       5.68961413     6.65706734     1.67348229    -0.00009642     0.00448940     0.00537772
O       5.71786545     2.85077596     1.59381580     0.00632106    -0.00353604     0.02460161
O      -0.00002443     4.78134296     6.47943573    -0.00012984    -0.00763541     0.00078753
O       1.91671315     6.65706616     1.67349624     0.00001157     0.00453774     0.00538081
O      -0.00001725     0.90390992     6.44715335     0.00005554    -0.01467689     0.02311320
O       1.88845691     2.85084905     1.59384193    -0.00623390    -0.00363580     0.02462681
