# total energy = -4989.67561350 eV

CRYSTAL
PRIMVEC
        2.93051797     0.00000000     0.00000000
        0.68490025     4.54031476     0.00000000
       -0.00000430    -0.00005960     4.60472385
PRIMCOORD
6 1
Ti      1.80770669     2.27012749     2.30236187     0.00000000     0.00000000     0.00000000
Ti      0.00000000     0.00000000     0.00000000     0.00000000     0.00000000     0.00000000
O       1.59873498     0.88482880     0.89739282    -1.07533293     0.45691863     0.44522242
O       2.01667840     3.65542618     3.70733087     1.07533293    -0.45691863    -0.44522242
O       0.20896984     1.38527454     3.19975568     1.07533910    -0.45684329     0.44512960
O       0.47592569     3.15498054     1.40496802    -1.07533910     0.45684329    -0.44512960
