# total energy = -4989.09854060 eV

CRYSTAL
PRIMVEC
        4.05541239     0.00000000     0.00000000
        0.40452051     4.03518684     0.00000000
       -2.23000242    -2.01762596     5.18210648
PRIMCOORD
6 1
Ti      0.30323498     3.02654363     1.29552637     0.00032550    -0.00032550     0.00000000
Ti      1.92669514    -1.00898307     3.88657949    -0.00032550     0.00032550     0.00000000
O       0.10117288     1.00879033     0.84412271    -0.00057258    -0.00149895    -0.83406386
O       2.12875713     1.00877012     4.33798326     0.00057258     0.00149895     0.83406386
O      -0.10115043    -1.00877002     3.43517584    -0.00149895    -0.00057258    -0.83406386
O       2.33108038     3.02633041     1.74693013     0.00149895     0.00057258     0.83406386
