# total energy = -19961.02865365 eV

CRYSTAL
PRIMVEC
        5.93400000     0.00000000     0.00000000
        0.00000000     9.29699974     0.00000000
        0.00000000     0.00000000     4.64899994
PRIMCOORD
24 1
Ti      4.45496499     7.00355200     2.42986101     0.39407518    -1.05801449    -0.51429718
Ti      4.46955398     2.34731302     2.39993202     0.20915006    -0.55954219    -1.28163678
Ti      1.47717998     6.96412999     2.24597203    -0.62625360    -0.56985463     0.15314885
Ti      1.53299099     2.32286598     2.30257399     0.15017665     0.10076826    -0.34373425
Ti      2.97120400     4.60459599     4.61769699    -0.92613099     0.57784177     0.10355816
Ti      2.96521302     9.23068701     4.63824997     0.29914154     1.04694151     1.03976196
Ti      5.85883000     4.66903798     0.05981698     0.83527562     0.63542550     0.17065575
Ti      0.01959998     9.28515702     4.56348802    -0.37411005     0.81605970     1.37707128
O       4.46739901     5.64193401     0.92220000    -0.22826134    -0.75311779    -0.44396412
O       4.43477201     1.00571602     0.81977398    -0.11094983    -0.98290765     0.10109993
O       1.48803198     5.53302398     0.92908200     0.19084920     0.43197120     0.17369094
O       1.53491301     0.96691198     0.84037999    -0.40311107    -0.33762994     0.11930206
O       4.45620702     8.42482001     3.73746202    -0.18454537    -0.22025595     0.29463310
O       4.48993000     3.78907199     3.70351001    -0.55256987    -0.36283036     0.09842984
O       1.41361601     8.31232598     3.78747599     0.73763666     0.19488892     0.04397874
O       1.49267202     3.73184999     3.78715600     0.17507676    -0.33645031    -0.77548511
O       3.00645001     6.10182301     3.35361801    -0.57166572     0.18250597    -0.83990438
O       2.99803201     1.41320002     3.17625298    -0.74617144    -0.05067132     0.05616114
O       5.91084802     5.99264898     3.15722599     0.26259689     0.49601972     0.46044464
O       0.01640100     1.32908301     3.21052399     0.12863800     1.06299446    -0.86652379
O       2.94933300     7.90662901     1.45462502    -0.10722455     0.09527278    -0.22661712
O       2.98249198     3.17051602     1.33372400    -0.21491834     0.31840502     0.91433887
O       5.87530398     7.92850298     1.53091402     0.87105125     0.20574464    -0.69292002
O       5.83600701     3.30257601     1.38395700     0.79224408    -0.93356430     0.87880699
