# total energy = -19074.07332594 eV

CRYSTAL
PRIMVEC
        5.93400000     0.00000000     0.00000000
        0.00000000     9.29699974     0.00000000
        0.00000000     0.00000000     4.64899994
PRIMCOORD
22 1
Ti      4.43204299     7.00658000     2.46976902    -1.20286226    -0.13048456    -1.05649805
Ti      4.38857298     2.41189698     2.12417199     1.20139931    -1.33398780     0.97594638
Ti      1.44919799     7.08928300     2.51701598     0.88516815     0.63098649    -0.19284978
Ti      1.63046602     2.36982099     2.20485802    -0.55408939     0.09909884     0.28612121
Ti      3.03578601     4.55689802     4.46671098    -0.07290597     1.44787280     0.64962159
Ti      2.98249902     0.05227298     0.05971099     0.03753915     0.06103338    -0.05392377
Ti      5.86406198     4.52683901     4.55494297     0.13862108     0.00662394     0.54885180
Ti      5.92875998     9.17075298     0.11403198    -0.60255830    -0.38822129     1.30203849
O       4.29824698     5.45305001     0.99050699     0.37833463    -0.10794935    -0.05820877
O       4.46129098     0.71471002     1.07562600     0.56151911     1.77724821     0.14103714
O       1.56854000     0.75850198     1.04380599    -1.47101248     1.18880424     0.33964183
O       4.39584599     8.36673598     3.94400900     1.29932803    -0.17534853    -1.37262430
O       4.46380003     3.93762998     3.47280101    -0.20876543    -1.28488768    -1.00087915
O       1.42048198     8.35699902     3.83316198     0.02819396     1.12588161     0.05828950
O       1.43820200     3.91092998     3.47389000     0.24320022    -0.30056130     0.13834160
O       2.87558299     6.35234902     3.48373301     0.30693558    -2.28546448    -0.07172403
O       3.05648800     1.42123701     3.28961402    -0.02967646     0.83396642    -0.28054140
O       5.86133201     6.22721198     3.39027698     0.82990099    -1.32435413     0.26806203
O       2.98091398     7.96108701     1.55265902    -0.71355313    -1.17989202     0.02612833
O       3.05541203     3.03636000     1.10955801    -0.94086624     1.22553529    -1.02159660
O       5.90293402     7.90156399     1.52855198     0.23669867    -0.27961426    -0.33692314
O       0.07335497     3.01784600     1.09588899    -0.35054922     0.39371394     0.71168882
