# total energy = -19942.69782620 eV

CRYSTAL
PRIMVEC
        6.40499349     0.00000000     0.00000000
        0.00002978     5.57742291     0.00000000
        0.00000000     0.00000000    10.52665772
PRIMCOORD
24 1
Ti      2.32151971     3.30517554     3.90531507     0.27770753    -0.51415732     0.50976896
Ti      4.08350362     2.27224713     6.62134307    -0.27770753     0.51415732    -0.50976896
Ti      5.52390548     2.27224894     1.35797194     0.27817238     0.51423651    -0.50975044
Ti      0.88111785     3.30517391     9.16868631    -0.27817238    -0.51423651     0.50975044
Ti      2.32150506     0.51646420     1.35801415     0.27770753    -0.51415732    -0.50976896
Ti      4.08351827     5.06095865     9.16864410    -0.27770753     0.51415732     0.50976896
Ti      0.88110319     0.51646216     6.62130086    -0.27817238    -0.51423651    -0.50975044
Ti      5.52392014     5.06096063     3.90535728     0.27817238     0.51423651     0.50975044
O       2.02723138     1.96390534     5.37167302     0.93919811     1.06531951    -0.51853308
O       4.37779195     3.61351733     5.15498512    -0.93919811    -1.06531951     0.51853308
O       1.17532376     1.96392788     0.10837786    -0.93901993     1.06563344    -0.51919977
O       5.22969962     3.61349485    10.41827998     0.93901993    -1.06563344     0.51919977
O       4.37777729     0.82480582     0.10834368    -0.93919811    -1.06531951    -0.51853308
O       2.02724604     4.75261685    10.41831415     0.93919811     1.06531951     0.51853308
O       5.22968491     0.82478334     5.37170719     0.93901993    -1.06563344    -0.51919977
O       1.17533830     4.75263939     5.15495094    -0.93901993     1.06563344     0.51919977
O       0.23272623     3.39250481     2.84351297    -0.61430414     0.01237961     0.11211505
O       6.17229710     2.18491787     7.68314516     0.61430414    -0.01237961    -0.11211505
O       3.43522938     2.18486603     2.41984958    -0.61430542    -0.01228499    -0.11234362
O       2.96979395     3.39255664     8.10680837     0.61430542     0.01228499     0.11234362
O       0.23271152     0.60379329     2.41981595    -0.61430414     0.01237961    -0.11211505
O       6.17231181     4.97362938     8.10684201     0.61430414    -0.01237961     0.11211505
O       2.96977923     0.60384513     7.68317874     0.61430542     0.01228499    -0.11234362
O       3.43524409     4.97357754     2.84347934    -0.61430542    -0.01228499     0.11234362
