# total energy = -19960.98457215 eV

CRYSTAL
PRIMVEC
        7.60600008     0.00000000     0.00000000
        0.00000000     7.60600008     0.00000000
       -1.89786986    -1.89786986     4.85670466
PRIMCOORD
24 1
Ti      3.84164803     6.64243202     1.10200400    -1.18716670    -0.30379241     0.48621687
Ti      3.76051198     2.82305299     1.18684101     0.17364389     0.89627352     1.58996641
Ti     -0.00875503     6.71640000     1.22369397     1.10326695    -1.21810403    -0.45976355
Ti     -0.08228198     2.73368401     1.20652900    -0.33183647     1.70475927     1.61754716
Ti      5.71617620     2.76021923     3.80328379    -0.71332378     1.92618199    -1.27339665
Ti      5.74500223    -0.94487678     3.56829379    -0.71128773    -1.08517871     0.55145452
Ti      1.84675325     2.76541025     3.61064184     1.08957453     0.95879918    -0.23684651
Ti      1.94321321    -0.89230376     3.64372383     0.45289922    -0.49104592    -0.87988171
O       3.82010400     4.66495501     0.75652598     0.06808541     2.23643378    -0.56720691
O       3.76467798     1.03976101     0.80136602     0.29942667    -1.77325348    -0.57987114
O      -0.02052599     4.69893502     0.95212301    -0.14568159     1.01179709    -1.25583266
O      -0.12234700     0.91734199     0.75782802     0.22369017     0.80750230    -0.17449672
O       5.85308520     4.73469422     4.10685981     0.03201565     0.20092870    -0.11337644
O       5.77139823     0.97754421     4.09512980    -0.38645932    -1.57282049     0.10904155
O       1.73345222     4.75543220     4.08896182     0.35694356     0.25058829     0.17085295
O       2.00870821     0.91830721     3.90328781    -0.25466349     0.43869078     0.94933520
O       3.76186223     2.80685022     3.17897983     0.81332045     0.03745713     0.70266656
O       3.85026721    -0.99749578     3.29868380     0.10483651    -0.21375594    -0.41579844
O       0.01843225     2.65894523     3.22768383    -0.86867426     0.03018013    -0.35647330
O      -0.02547279    -0.74036676     3.16240780     0.45059937    -0.57181356     0.49833628
O       5.71990103     6.67995403     1.58630898    -0.79669286    -0.03377479     0.00782181
O       5.63947000     2.93964799     1.66985802     1.56238567    -0.57005261     0.12670375
O       1.96872501    -0.65636601     1.70618901    -0.18975931    -1.27810974    -0.65700786
O       1.92328598     3.13434500     1.62124098    -1.14514200    -1.38789074     0.16000855
