# total energy = -4978.08829844 eV

CRYSTAL
PRIMVEC
        4.22770831     0.00000000     0.00000000
        0.00000000     2.20806182     0.00000000
        0.00000000    -0.00011646     5.88816402
PRIMCOORD
6 1
Ti      2.11385395     1.10397263     2.94408201     0.00000000     0.00000000     0.00000000
Ti      0.00000000     0.00000000     0.00000000     0.00000000     0.00000000     0.00000000
O       2.11385395     0.43029602     1.14751646     0.00000000    -0.75145737     0.08563551
O       2.11385395     1.77764928     4.74064761     0.00000000     0.75145737    -0.08563551
O       0.00000000     0.67363086     4.09159966     0.00000000     0.75134579     0.08392110
O       0.00000000     1.53431445     1.79656435     0.00000000    -0.75134579    -0.08392110
