# total energy = -19960.87011897 eV

CRYSTAL
PRIMVEC
        5.93400000     0.00000000     0.00000000
        0.00000000     9.29699974     0.00000000
        0.00000000     0.00000000     4.64899994
PRIMCOORD
24 1
Ti      4.40814402     6.84316599     2.27817701     0.65922287     0.46451624     0.46419562
Ti      4.48444302     2.35080098     2.33301999    -0.23016807    -1.55059124     0.30927271
Ti      1.49064098     7.00755602     2.31084302    -0.51870663    -0.07908742     0.01709090
Ti      1.49107501     2.43679699     2.32382898     0.01065466    -1.66817760     0.12792683
Ti      2.94031698     4.65059499     4.64529602    -0.29553273    -0.81562390     0.14531880
Ti      2.97046098     9.22648100     4.57301501    -0.27522255     1.77954266     0.43923560
Ti      5.92657099     4.66862798     0.03747199     0.54005451    -0.47291912    -0.41294298
Ti      0.00459098     9.21812302     0.08163501     0.04510128     1.77708417     0.37740157
O       4.49522400     5.57808999     0.87578602    -0.63772921     0.72860540     0.53067640
O       4.50064198     0.99109099     0.88210202    -0.24854246    -0.48785981    -0.05158483
O       1.49099098     5.59321202     0.88724001     0.02289671    -0.17191636    -0.13419415
O       1.51000400     0.87555699     0.86372702    -0.08703676     0.29320177     0.27648882
O       4.47908198     8.46703402     3.76989403    -0.18906691    -1.29118278    -0.86080591
O       4.45669402     3.77060598     3.85746498    -0.01270434    -0.22550357    -0.76240847
O       1.46713101     8.42798598     3.75087799     0.32821327    -0.82677324    -0.67195446
O       1.50654202     3.67510801     3.80501398    -0.28216351     0.83509616     0.42124558
O       2.87160898     6.03963701     3.28698301     1.25321245     0.51183278    -0.70608972
O       2.92819300     1.47514397     3.17332103     0.26469465    -0.58548232     0.47055422
O       0.10644803     6.03620302     3.09870502    -1.49321011    -0.69087239     1.45617284
O       0.04757499     1.42791998     3.15048200    -0.56319701     0.26334997     0.18204420
O       2.97324202     7.82202098     1.40227500     0.79289586     0.20151928    -0.02382899
O       2.94239299     3.28432701     1.46722600     0.34662854     0.79347898    -0.58494213
O       5.91590098     7.79876999     1.44219798    -0.46387269     0.95263701    -0.57249310
O       5.82634799     3.36329502     1.49028998     1.03357768     0.26512557    -0.43637885
