# total energy = -19929.18696327 eV

CRYSTAL
PRIMVEC
        6.56026620     0.00000000     0.00000000
        0.00002308     3.75959618     0.00000000
        0.00000000     0.00000000     9.92513444
PRIMCOORD
24 1
Ti      2.37779473     2.22793333     3.68215422    -0.37777670     1.65765433    -1.26225425
Ti      4.18249471     1.53166316     6.24298063     0.37777670    -1.65765433     1.26225425
Ti      5.65781540     1.53166449     1.28037358    -0.37655979    -1.65805979     1.26434816
Ti      0.90247403     2.22793211     8.64476137     0.37655979     1.65805979    -1.26434816
Ti      2.37778329     0.34813529     1.28041336    -0.37777670     1.65765433     1.26225425
Ti      4.18250614     3.41146130     8.64472159     0.37777670    -1.65765433    -1.26225425
Ti      0.90246260     0.34813381     6.24294085     0.37655979     1.65805979     1.26434816
Ti      5.65782684     3.41146273     3.68219400    -0.37655979    -1.65805979    -1.26434816
O       2.07637386     1.32381779     5.06472029     3.19931278    -1.40336365     2.51312186
O       4.48391557     2.43577865     4.86041456    -3.19931278     1.40336365    -2.51312186
O       1.20381396     1.32383294     0.10218481    -3.19902456    -1.40375343     2.51302236
O       5.35647553     2.43576356     9.82294973     3.19902456     1.40375343    -2.51302236
O       4.48390413     0.55598056     0.10215261    -3.19931278     1.40336365     2.51312186
O       2.07638530     3.20361593     9.82298193     3.19931278    -1.40336365    -2.51312186
O       5.35646409     0.55596541     5.06475249     3.19902456     1.40375343     2.51302236
O       1.20382524     3.20363108     4.86038231    -3.19902456    -1.40375343    -2.51302236
O       0.23836367     2.28679955     2.68102651     1.15266583    -0.15246030     1.53508131
O       6.32192576     1.47279695     7.24410834    -1.15266583     0.15246030    -1.53508131
O       3.51850487     1.47276179     2.28157244     1.15201997     0.15266291    -1.53580405
O       3.04178457     2.28683470     7.64356221    -1.15201997    -0.15266291     1.53580405
O       0.23835224     0.40700140     2.28154076     1.15266583    -0.15246030    -1.53508131
O       6.32193720     3.35259509     7.64359389    -1.15266583     0.15246030     1.53508131
O       3.04177313     0.40703656     7.24413996    -1.15201997    -0.15266291    -1.53580405
O       3.51851631     3.35255993     2.68099483     1.15201997     0.15266291     1.53580405
