# total energy = -4990.56102688 eV

CRYSTAL
PRIMVEC
        3.86019543     0.00000000     0.00000000
       -0.00000859     3.86019543     0.00000000
       -1.93012799    -1.93013229     4.92646789
PRIMCOORD
6 1
Ti     -0.00016999     2.89529278     1.23161684    -0.00007302     0.00007302    -0.00000000
Ti      1.93022873    -0.96522974     3.69485073     0.00007302    -0.00007302     0.00000000
O       0.00003856     0.96504230     0.80248131    -0.00014167    -0.00038541    -0.22104322
O       1.93002008     0.96502063     4.12398632     0.00014167     0.00038541     0.22104322
O      -0.00002180    -0.96502554     3.26571520    -0.00038541    -0.00014167    -0.22104322
O       1.93008038     2.89508842     1.66075242     0.00038541     0.00014167     0.22104322
