# total energy = -4984.17910346 eV

CRYSTAL
PRIMVEC
        4.06082499     0.00000000     0.00000000
        0.00000000     3.81762210     0.00000000
        0.00000000    -0.00007519     5.42950692
PRIMCOORD
6 1
Ti      2.03041232     1.90877357     2.71475357     0.00000000     0.00000000     0.00000000
Ti      0.00000000     0.00000000     0.00000000     0.00000000     0.00000000     0.00000000
O       2.03041232     0.74398371     1.05813099     0.00000000     0.48604486     1.43438196
O       2.03041232     3.07356343     4.37137622     0.00000000    -0.48604486    -1.43438196
O       0.00000000     1.16475984     3.77288562     0.00000000    -0.48606955     1.43436345
O       0.00000000     2.65278731     1.65662153     0.00000000     0.48606955    -1.43436345
