# total energy = -19517.36376682 eV

CRYSTAL
PRIMVEC
        5.93400000     0.00000000     0.00000000
        0.00000000     9.29699974     0.00000000
        0.00000000     0.00000000     4.64899994
PRIMCOORD
23 1
Ti      4.54064699     6.86818100     2.25448098    -0.26751181     0.36512044     0.87936183
Ti      4.45772100     2.27426999     2.37105402    -0.89411045    -0.32173408     0.31245754
Ti      1.53192702     7.09358997     2.32409102     0.03989145    -0.12744500    -0.62731187
Ti      1.37349299     2.42875001     2.29738398     0.95014536    -0.82343543     0.22932809
Ti      2.93040200     4.55347498     0.09850597     0.47462016    -0.71176107     0.70585987
Ti      2.98041999     9.28318600     4.50899700     1.13370676     0.63015551     0.51804765
Ti      0.00370101     4.67149199     0.01569402     0.24768474    -0.03270907    -0.59223609
Ti      0.04253098     0.01181102     0.11683398    -0.81872825     1.06873419     0.00800590
O       4.48714701     5.66302802     0.74218300    -1.42623568    -0.24470715     0.61836725
O       4.43747700     0.96213801     0.89744302     0.14314648    -0.69620666    -0.30454703
O       1.50826100     5.53173401     1.00188600     0.78203860     0.15706849    -0.61524593
O       1.48967000     0.93818602     0.95227499    -0.77008528    -0.57813590    -0.29792360
O       4.41362302     8.33664802     3.63017398    -0.08398692     0.33051183     0.66260747
O       4.52527698     3.82924501     3.73271303    -1.31795645    -0.52437257    -0.48554864
O       1.45824798     8.51373698     3.76831602    -0.17344514    -1.78756836    -1.27794622
O       1.41924000     3.56622201     3.85718901     0.45454061     1.72623545    -0.12683771
O       2.78285399     1.57644602     3.28941802     1.75030741    -1.27649046     0.02772370
O       0.09210399     5.99590601     3.18709101     0.07036058     0.31618076     0.26053615
O       5.89187300     1.33317900     3.18191799    -0.09666786     0.48150429     0.22164897
O       3.01993201     7.87353998     1.31097001    -0.81305100    -0.71850559     1.17898648
O       2.99296599     3.21948301     1.39413001    -0.38840950     0.54220446    -0.05153598
O       5.90621301     7.69534902     1.43632798     0.98776806     2.41293467    -1.62977970
O       5.82516999     3.28614701     1.43399901     0.01597787    -0.18757927     0.38598186
