# total energy = -4988.56671142 eV

CRYSTAL
PRIMVEC
        2.96000205     0.00000000     0.00000000
        1.14163203     4.49517543     0.00000000
       -0.00000734    -0.00006078     4.67511366
PRIMCOORD
6 1
Ti      2.05081325     2.24755723     2.33755688     0.00000000     0.00000000     0.00000000
Ti      0.00000000     0.00000000     0.00000000     0.00000000     0.00000000     0.00000000
O       1.70248678     0.87603158     0.91111082    -1.80149526     0.84022140     0.82683674
O       2.39913968     3.61908289     3.76400295     1.80149526    -0.84022140    -0.82683674
O       0.34832336     1.37150105     3.24866864     1.80173772    -0.83937422     0.82600988
O       0.79330121     3.12361351     1.42644512    -1.80173772     0.83937422    -0.82600988
