# total energy = -19958.90055908 eV

CRYSTAL
PRIMVEC
        7.60600008     0.00000000     0.00000000
        0.00000000     7.60600008     0.00000000
       -1.89786986    -1.89786986     4.85670466
PRIMCOORD
24 1
Ti      3.91083599     6.60509301     1.24795601     1.45071670    -1.01326493    -0.34457423
Ti      3.62945599     2.60188998     1.36716700    -1.71822826     1.04673762     0.35139408
Ti      0.28318100     6.72631001     1.06822900    -2.76638847    -0.02446303     1.16743322
Ti     -0.16889602     2.87197501     1.05103302     1.54448564     0.78571630     1.51372855
Ti      5.75082625     3.08593121     3.62809082     0.94848236    -1.27192135    -1.01905146
Ti      5.72162424    -0.82920879     3.56349384     1.20481425     0.92415304    -0.45596937
Ti      1.76731221     2.74851224     3.88116682    -0.25596087     0.45617943    -2.26348231
Ti      1.74784023    -0.96106076     3.62775982    -0.80187801    -0.87373703     1.17377845
O       3.46188900     4.63806698     0.85375902     0.74370498    -0.00734307     0.95021066
O       3.92188802     0.77747002     0.69134198     0.03307674     2.51075362     2.27538549
O       0.20993901     4.73418700     0.61164799    -0.18506730     1.87216900     0.65199035
O       0.15826501     1.07853399     0.82727698    -0.95984407    -1.34714774    -1.00095397
O      -1.54473978     4.93332625     4.04732880    -1.27039926    -1.24929615    -0.12121547
O       6.04412724     1.03283223     3.98430379    -1.35118515    -1.02789246    -0.55963012
O       1.80913224     4.69714920     4.24952780     0.06384591    -0.97930810    -2.09869973
O       1.57020220     0.81694521     4.12653182     0.40378907     0.11126273     0.33744353
O       3.66343923     2.56654723     3.34217979     1.16420700     0.64776731    -0.29925235
O       3.91481721    -1.06008380     3.14737584     0.00348153     0.27735220     1.17601762
O      -0.00927177     3.09093924     3.06535283    -1.00549069    -0.51747250     0.91920417
O      -0.06803478    -1.08830678     3.04665779     2.20294746     0.30605421     0.95788489
O       5.93364201     6.63614302     1.45451400    -2.51555567     0.03172614     0.14721268
O       5.64694802     3.13162397     1.61589401    -1.01485567    -0.79926011    -0.28030357
O       1.92775901     6.72142999     1.83099700     1.82792647     0.24562529    -2.45313517
O       1.77831401     2.69739599     1.74981300     2.25337581    -0.10439094    -0.72541569
