# total energy = -19960.81060071 eV

CRYSTAL
PRIMVEC
        7.60600008     0.00000000     0.00000000
        0.00000000     7.60600008     0.00000000
       -1.89786986    -1.89786986     4.85670466
PRIMCOORD
24 1
Ti      3.81931997     6.52541601     1.20067498    -0.96111189     1.07334675     1.12162900
Ti      3.79170401     2.85297702     1.22843403     0.14184293    -0.14277933    -0.07834103
Ti     -0.01289499     6.70687798     1.23441902     1.21875040     0.60436888    -0.69734489
Ti     -0.04007697     2.93758801     1.20263600     0.17179938    -1.37396693     0.54349747
Ti      5.70052822     2.87353021     3.68280680     0.96591728     0.19871010    -0.36427300
Ti      5.76160120    -0.94570076     3.61589080    -0.81607873    -0.17812481     0.55244928
Ti      1.92968125     2.85391821     3.64446679    -0.63141586    -0.58673624    -0.86564190
Ti      1.89859023    -1.01643477     3.73329480     0.46582596     0.51706035    -2.39406354
O       3.61808202     4.76219800     0.69164102     0.65835795    -0.41443781     1.52194014
O       3.69279697     0.86350699     0.66799103     0.31734444     0.45093464     2.56647561
O       0.04299798     4.80007698     0.78926702    -0.11861249    -0.52365549    -0.52707891
O      -0.03975899     1.00753401     0.85789300     0.38817296    -0.60110923    -1.21499170
O       5.77409724     4.72443025     3.84552679     0.20753104     0.72863368     1.38539446
O       5.74036823     0.89039824     3.93385182    -0.44392864     0.75964814     1.12832570
O       1.82927521     4.68842624     4.04390481     0.05250297     0.28874888    -0.18683005
O       1.79071322     0.92621121     4.20839882     0.78236564     0.11700349    -1.46022979
O       3.85985321     3.03976420     3.24081679    -0.74240837    -1.13437628     0.10403999
O       3.83988423    -1.03425878     3.25940181    -0.91521408     0.07645872    -0.72281270
O      -0.07586375     2.61562620     3.22265479     1.65033671     0.98867438    -0.84252948
O       0.00428221    -0.99324379     3.12839679     0.21447122     0.04502415     0.84232379
O       5.72595000     6.64965201     1.55047400    -1.31288289    -0.11333401     0.15944317
O       5.76770801     2.94487399     1.54823103    -1.50996651    -0.00073354    -0.06497052
O       1.84677500     6.69990200     1.60123802     1.38553818    -0.12694878     0.17448232
O       1.99000597     3.00241799     1.73250901    -1.16913735    -0.65240970    -0.68089368
