# total energy = -19073.93256003 eV

CRYSTAL
PRIMVEC
        5.17600016     0.00000000     0.00000000
        0.00000000     5.50899976     0.00000000
        0.00000000     0.00000000     9.26300011
PRIMCOORD
22 1
Ti      1.82316501     3.36210702     3.22688302    -0.40637689     0.65054411     0.71870228
Ti      3.72799700     2.40079098     5.94693198     0.00351933    -0.70871174    -0.11974609
Ti      4.27708798     2.30818501     1.19781303     0.90253982    -0.60315326    -1.47299352
Ti      0.85445399     3.16764798     8.18535302    -0.18385554     1.12153130     0.50239477
Ti      1.78108098     0.53777802     1.34624899    -1.16536451     0.02131960    -3.07436098
Ti      3.17439197     5.01506000     7.86726902     0.56662507     0.11222072     2.11453567
Ti      0.71566402     0.11979800     6.06206000    -0.40720864     2.23026904    -1.28646917
Ti      4.41381400     5.02439802     3.44180799    -0.36718941     0.82095406     0.40789564
O       3.46678198     3.49370298     4.39124998    -0.75622857    -0.35426472     1.05265219
O       0.92514900     2.02798899     0.32439301    -0.43151020    -0.21775555    -0.06635068
O       4.38986100     3.64446298     8.96602398    -1.01472455    -0.01215232     0.91112628
O       3.28893101     0.77919900     0.18350602     1.58376774     1.41242859    -0.63966782
O       1.60616800     4.86871201     8.90199697    -1.41866737    -0.96672512     0.03751549
O       4.33161901     0.85241798     4.78825802    -0.03308882     0.23630195     0.66404472
O       0.92144301     4.86103598     4.34413702     0.78788580    -1.58347772     1.01250209
O       5.16830402     3.59801800     2.34920599     0.87585767    -1.26005725     0.40698444
O       0.29233699     2.12492802     6.71805600    -1.24063513    -1.31648115    -0.96356292
O       2.62035202     1.90312401     2.30943398     0.55821910     1.35665311     0.80134116
O       2.62209100     3.20884702     7.35304500     0.20097241     0.14826606    -1.86688435
O       5.07134202     0.68698198     2.05367902     0.56144429     0.13649066     0.60602030
O       2.48130302     0.67241400     6.50941898     0.13151378    -0.38573504     0.10914286
O       2.57733800     4.78974898     2.39437100     1.25250437    -0.83846585     0.14517739
