# total energy = -4956.15995884 eV

CRYSTAL
PRIMVEC
        4.74632876     0.00000000     0.00000000
       -0.00000672     2.55571580     0.00000000
       -2.37319074    -1.27791541     5.12034769
PRIMCOORD
6 1
Ti     -0.00020315     1.91687491     1.28008672    -0.01976691    -0.02222745    34.88275214
Ti      2.37333410    -0.63907437     3.84026056     0.01976691     0.02222745   -34.88275214
O       0.00005038     0.63891894     0.83406274     0.01891664     0.02076938   -25.11288432
O       2.37308047     0.63888150     4.28628464    -0.01891664    -0.02076938    25.11288432
O      -0.00001938    -0.63893627     3.39423658    -0.00175298    -0.00000077    -0.92408670
O       2.37315013     1.91673671     1.72611080     0.00175298     0.00000077     0.92408670
