# total energy = -4989.49034634 eV

CRYSTAL
PRIMVEC
        3.66923108     0.00000000     0.00000000
        0.72657278     3.59657458     0.00000000
       -2.19793536    -1.79831464     4.70658205
PRIMCOORD
6 1
Ti      0.54480311     2.69756848     1.17664564     0.00125033    -0.00125033     0.00000000
Ti      1.65306540    -0.89930853     3.52993656    -0.00125033     0.00125033    -0.00000000
O       0.18168164     0.89913839     0.76666381    -0.00002391     0.00051422     0.17620188
O       2.01618676     0.89912147     3.93991844     0.00002391    -0.00051422    -0.17620188
O      -0.18165756    -0.89911869     3.11995474     0.00051422    -0.00002391     0.17620188
O       2.37952585     2.69737845     1.58662747    -0.00051422     0.00002391    -0.17620188
