# total energy = -19959.89427137 eV

CRYSTAL
PRIMVEC
        7.60600008     0.00000000     0.00000000
        0.00000000     7.60600008     0.00000000
       -1.89786986    -1.89786986     4.85670466
PRIMCOORD
24 1
Ti      3.78972198     6.53695102     1.22234298    -0.16184843    -1.00406295     0.94538213
Ti      3.77413199     2.79311802     1.13508700    -0.68493057     0.97202108     0.53506528
Ti      0.08937502     6.65107799     1.23448702    -0.22197859     1.66185551     0.53716099
Ti     -0.04607800     3.03646901     1.20300298     1.62460716    -2.27474708    -0.05325579
Ti      5.74316525     2.94415224     3.62288483     0.44681856    -1.48009671    -1.83397808
Ti      5.70697725    -0.97035375     3.64678380    -0.10018153     1.35228172     0.48432171
Ti      1.94879820     2.90030425     3.61375583    -0.41045132    -2.58720591     0.63826965
Ti      1.84803322    -1.10110377     3.75435182     0.02082594     1.10690814    -0.82725686
O       3.67061598     4.64923702     0.70329202     1.00094214     1.75961763     1.43595342
O       3.58125900     0.79036099     0.81991898     0.66455637     0.75212226     0.35811881
O      -0.02016001     4.82916898     0.63124999    -0.23643873    -0.11180652     1.23372991
O      -0.02392500     1.00632002     0.76505499     0.10358747    -0.72898386     0.23554348
O       5.89733924     4.75782022     4.02744279    -0.32047836     0.49535560     0.29362935
O       5.94104023     0.95382622     3.93095182    -1.13798225     0.65751694     0.76786230
O       1.67154123     4.62196020     4.05481380     0.56870226     2.46862556     1.25693593
O       1.77633621     0.91072320     4.14686582     0.61288129    -1.27956396    -1.33708187
O       3.73923424     2.89350321     3.05675280     3.55450439    -0.63582273     2.41471054
O       3.70557825    -1.09606478     3.29978079     0.99948073     0.16231277    -0.13154617
O       0.07758321     2.85391821     3.14467782    -1.89325000    -0.09276004    -0.33043650
O       0.01632321    -0.93669877     3.24610380    -0.19337480    -0.32157211    -0.80523716
O       5.68056299     6.55297001     1.69506798    -0.26306329     0.11332398    -0.82208817
O       5.79665602     3.04889500     1.58033198    -1.63165610    -0.30013424    -0.19933487
O       1.90005097     6.51096302     1.71054101    -0.71067040     0.05950461    -0.50914264
O       1.98016000     3.23330401     1.83824302    -1.63060117    -0.74468997    -4.28732562
