# total energy = -19884.10099142 eV

CRYSTAL
PRIMVEC
        9.26847860     0.00000000     0.00000000
        0.00002918     3.74169334     0.00000000
        0.00000000     0.00000000    14.34529400
PRIMCOORD
24 1
Ti      3.35939513     2.21732396     5.32200178     0.23206580    -0.16300286     2.42944271
Ti      5.90911292     1.52436925     9.02329235    -0.23206580     0.16300286    -2.42944271
Ti      7.99347624     1.52437053     1.85058797     0.23199792     0.16300106    -2.42948461
Ti      1.27503180     2.21732288    12.49470629    -0.23199792    -0.16300106     2.42948461
Ti      3.35938067     0.34647736     1.85064548     0.23217610    -0.16309876    -2.42866520
Ti      5.90912738     3.39521599    12.49464878    -0.23217610     0.16309876     2.42866520
Ti      1.27501734     0.34647601     9.02323484    -0.23221287    -0.16294141    -2.43043130
Ti      7.99349070     3.39521733     5.32205929     0.23221287     0.16294141     2.43043130
O       2.93354240     1.31751381     7.32029371     1.01593734     0.78188536    -2.32787407
O       6.33496571     2.42417941     7.02500043    -1.01593734    -0.78188536     2.32787407
O       1.70077185     1.31752888     0.14769285    -1.01613428     0.78198769    -2.32869759
O       7.56773632     2.42416433    14.19760090     1.01613428    -0.78198769     2.32869759
O       6.33495125     0.55333273     0.14764631    -1.01477906    -0.78166810    -2.32667825
O       2.93355679     3.18836048    14.19764743     1.01477906     0.78166810     2.32667825
O       7.56772186     0.55331766     7.32034030     1.01548200    -0.78195864    -2.32855104
O       1.70078612     3.18837562     7.02495383    -1.01548200     0.78195864     2.32855104
O       0.33676304     2.27590999     3.87502178    -1.84549971     0.56009421     0.08753684
O       8.93174501     1.46578323    10.47027236     1.84549971    -0.56009421    -0.08753684
O       4.97101455     1.46574845     3.29767084    -1.84540586    -0.55994637    -0.08597875
O       4.29749356     2.27594483    11.04762303     1.84540586     0.55994637     0.08597875
O       0.33674858     0.40506331     3.29762503    -1.84535239     0.55991886    -0.08650403
O       8.93175947     3.33662990    11.04766884     1.84535239    -0.55991886     0.08650403
O       4.29747910     0.40509809    10.47031804     1.84568663     0.56009369    -0.08792482
O       4.97102901     3.33659512     3.87497603    -1.84568663    -0.56009369     0.08792482
