# total energy = -19516.88744861 eV

CRYSTAL
PRIMVEC
        5.17600016     0.00000000     0.00000000
        0.00000000     5.50899976     0.00000000
        0.00000000     0.00000000     9.26300011
PRIMCOORD
23 1
Ti      1.93672899     3.26930600     3.42670602    -0.74822035    -0.78001282     2.28722928
Ti      3.37968200     2.23658500     5.92754002    -1.03679105     0.22013845    -2.78944382
Ti      4.26267901     2.07519298     1.50906900     0.00781307     0.89647613    -0.37378634
Ti      0.80413500     3.34932802     7.85164099     0.84846127     0.42879897     1.18564307
Ti      1.85848902     0.22565700     1.30465698    -0.38750936     1.08630280    -1.62191984
Ti      3.43310297     5.16250498     7.93647800    -1.27655859     0.36917301     0.21335433
Ti      0.73107298     0.57429501     5.81147901     0.51959983     0.06537572    -3.14665246
Ti      4.51893098     4.87562402     3.38643102     0.75135890    -0.10247573     2.83918337
O       1.57129903     2.00555601     4.79178599     1.00585450     0.06421435     0.04366609
O       3.49009198     3.58780001     4.50522100     0.60223717    -0.23183697     0.42030739
O       4.85581601     3.05859302     0.08785501     0.77067097     0.60944989    -1.41270884
O       3.27930703     0.92228398     0.18359403     0.79660545    -0.26491603    -1.01927257
O       1.74096003     4.77524200     8.82264002    -0.00973626    -0.06435062     2.39411239
O       4.32556602     0.74588999     4.77821598    -0.35222224    -0.19222680    -0.69383481
O       1.11063700     4.71392602     4.41091199    -0.79066259     0.81824669     0.26645149
O       0.10954800     3.21992598     2.75130899     0.01960621     0.15378237    -1.42562941
O       5.07148400     2.12307902     6.69783000     0.45334325    -0.17583421     1.37262815
O       2.64572998     1.73111098     2.31925101    -1.20007596     1.66420216     0.26810291
O       2.78630798     3.51340202     7.14779000    -0.92037480    -1.05543515     0.35623136
O       0.06676502     0.69213299     2.10324498     1.64342687    -1.65522001    -0.78421889
O       0.05044700     4.80637202     7.08854898    -1.49777459     0.34806271     0.07625561
O       2.53172398     0.63250101     6.61400198     0.39382862    -0.03534214     1.44701945
O       2.88098102     4.76723502     2.33770099     0.40711994    -2.16657276     0.09728210
