# total energy = -4983.48074625 eV

CRYSTAL
PRIMVEC
        4.27301080     0.00000000     0.00000000
        2.01082120     3.77030760     0.00000000
       -3.14195615    -1.88517789     5.64319220
PRIMCOORD
6 1
Ti      1.50801508     2.82787590     1.41079768     0.00014527    -0.00014527     0.00000000
Ti      1.63386061    -0.94274633     4.23239383    -0.00014527     0.00014527     0.00000000
O       0.50274958     0.94257210     0.91922978    -0.00058338    -0.00074588    -2.08653506
O       2.63912594     0.94255746     4.72396179     0.00058338     0.00074588     2.08653506
O      -0.50270897    -0.94254768     3.74082588    -0.00074588    -0.00058338    -2.08653506
O       3.64458440     2.82767714     1.90236563     0.00074588     0.00058338     2.08653506
