# total energy = -19928.08593317 eV

CRYSTAL
PRIMVEC
        6.12277906     0.00000000     0.00000000
        2.50637041     6.01520799     0.00000000
        0.00000000     0.00000000    11.19334640
PRIMCOORD
24 1
Ti      3.70448576     3.56460680     4.15265168     0.23669199    -2.57595862     0.72680357
Ti      4.92466382     2.45060136     7.04069485    -0.23669199     2.57595862    -0.72680357
Ti      6.30159999     2.45060341     1.44397684    -1.01166545    -1.03581737     0.38422169
Ti      2.32754963     3.56460500     9.74936975     1.01166545     1.03581737    -0.38422169
Ti      2.45130067     0.55700278     1.44402171     0.23669199    -2.57595862    -0.72680357
Ti      6.17784894     5.45820557     9.74932488    -0.23669199     2.57595862     0.72680357
Ti      1.07436440     0.55700056     7.04064992     1.01166545     1.03581737     0.38422169
Ti      7.55478521     5.45820778     4.15269655    -1.01166545    -1.03581737    -0.38422169
O       2.82043385     2.11805705     5.71187901     1.78447095     2.14049200    -0.90054824
O       5.80871567     3.89715112     5.48146752    -1.78447095    -2.14049200     0.90054824
O       2.00607288     2.11808136     0.11524178    -0.07615250    -0.80809391     1.49976308
O       6.62307678     3.89712691    11.07810438     0.07615250     0.80809391    -1.49976308
O       4.55553056     0.88954698     0.11520544    -1.78447095    -2.14049200    -0.90054824
O       4.07361902     5.12566118    11.07814072     1.78447095     2.14049200     0.90054824
O       5.36989160     0.88952272     5.71191529     0.07615250     0.80809391     1.49976308
O       3.25925787     5.12568552     5.48143118    -0.07615250    -0.80809391    -1.49976308
O       1.74697132     3.65879066     3.02360213     0.61363256     2.51240529     2.37777663
O       6.88217820     2.35641751     8.16974439    -0.61363256    -2.51240529    -2.37777663
O       4.26568692     2.35636153     2.57310673     0.89093848     1.86348176     1.21000016
O       4.36346259     3.65884664     8.62023961    -0.89093848    -1.86348176    -1.21000016
O       0.49378619     0.65118646     2.57307095     0.61363256     2.51240529    -2.37777663
O       8.13536338     5.36402170     8.62027534    -0.61363256    -2.51240529     2.37777663
O       3.11027748     0.65124250     8.16978006    -0.89093848    -1.86348176     1.21000016
O       5.51887203     5.36396568     3.02356641     0.89093848     1.86348176    -1.21000016
