# total energy = -19517.62185521 eV

CRYSTAL
PRIMVEC
        7.60600008     0.00000000     0.00000000
        0.00000000     7.60600008     0.00000000
       -1.89786986    -1.89786986     4.85670466
PRIMCOORD
23 1
Ti      3.78403798     6.61467001     1.20199898     0.15768839    -0.76884601    -0.51329754
Ti      3.71632801     2.70738400     1.28222500     0.13084529     0.92605514     0.31922289
Ti      0.03017702     6.78530300     1.12738700    -0.37865062    -0.21075006    -0.50893926
Ti     -0.06318001     2.94822299     1.17075101     0.26323298     0.15419837     0.50095315
Ti      5.63876524     2.88158323     3.68983379    -1.13419476     0.78565846     0.87188892
Ti      5.73942724    -0.85206475     3.50047782    -0.17147722    -0.31111311     1.03536383
Ti      2.03625421     2.73921825     3.75864779    -1.50111086     0.34205532     0.68116210
Ti      1.95745925    -1.02297376     3.58750383    -0.02045056    -0.15725901    -0.24341234
O       4.10745302     4.59981202     0.91789001    -1.33076518     0.38424611    -0.02962246
O       3.46747701     0.87618100     0.55454400    -0.19300224     0.60665973     2.39189147
O       7.18109001     4.86078700     0.88908599     1.13855972    -0.02385162    -0.32136102
O       0.11487703     1.07050700     0.63703903     0.23172024    -1.33741483     0.62377840
O       5.80643024     4.76780521     3.95945182     0.38168375     0.21723362    -0.07629931
O       5.45177623     1.02771720     4.16629081     0.90982993    -0.15481106    -1.52638584
O       2.10203724     4.66059221     4.15739783    -1.01104838    -0.05433411    -0.50080043
O       2.18131323     0.88303622     4.09594283    -1.09913081    -0.84833657     0.05085310
O       3.70335221     2.76554122     3.38868881     3.47135514     0.21705981    -2.31677718
O       3.84119420    -1.12535977     3.26616279    -0.51963171     0.35528725    -0.72996705
O       0.07596620    -0.82064776     3.03704883    -1.22646474     0.24165011     1.01832821
O       5.56521198    -0.52482101     1.59853297     1.17583867    -0.22746070     0.17226783
O       5.80062601     2.65982197     1.85081701    -0.41337569    -0.26677725    -0.64388469
O       1.83516098     6.41238899     1.51169599     1.40420028     0.26259689     0.12087069
O       1.81008301     2.98005401     1.74682299    -0.26565111    -0.13174672    -0.37583397
