# total energy = -4968.73359666 eV

CRYSTAL
PRIMVEC
        4.13021915     0.00000000     0.00000000
       -0.00000670     2.75347911     0.00000000
       -2.06513391    -1.37678157     4.57558873
PRIMCOORD
6 1
Ti     -0.00017751     2.06520936     1.14389694    -0.01156637    -0.02080023    23.31637186
Ti      2.06525609    -0.68851211     3.43169116     0.01156637     0.02080023   -23.31637186
O       0.00004346     0.68836230     0.74532590     0.01091177     0.01460310   -11.98719007
O       2.06503502     0.68833491     3.83026225    -0.01091177    -0.01460310    11.98719007
O      -0.00001770    -0.68836484     3.03312017    -0.00074408    -0.00012907     1.58869629
O       2.06509613     2.06506200     1.54246803     0.00074408     0.00012907    -1.58869629
