# total energy = -19070.04192686 eV

CRYSTAL
PRIMVEC
        5.17600016     0.00000000     0.00000000
        0.00000000     5.50899976     0.00000000
        0.00000000     0.00000000     9.26300011
PRIMCOORD
22 1
Ti      1.98241498     3.44266399     2.91856298    -4.08995662     0.49032910    -0.06423389
Ti      3.40309799     2.44645400     5.69558798     1.40640269     0.81285739     1.47137038
Ti      4.34572000     2.45885802     1.35335399     2.34457056    -1.00360092    -0.28869154
Ti      0.96425599     1.99370900     8.00789301    -1.82944651     1.00796152     0.72832283
Ti      1.84301599     0.78984398     1.33243799    -0.71178421     1.55126718     1.66990590
Ti      3.21748902     5.33307399     8.04872099     2.08814740     3.05402252     2.92672561
Ti      0.74917301     4.97749302     6.50595398     0.60401998     0.16488182    -0.81420979
Ti      4.28691200     5.05961699     3.44839599     2.02062635     2.07997669     0.61471731
O       2.98098198     3.95530302     4.33956799     0.54855586    -1.45860511     1.52905747
O       1.16003702     2.56854699     0.81953099    -0.72273968     0.30549319    -1.82225359
O       0.01310100     3.31692999     6.46112600    -0.72451734    -1.73551687     1.25193719
O       3.68126800     0.98699400     0.33420200     0.78906722     1.54946664     0.83538438
O       1.48067499     0.30480202     8.93031399    -1.56609268    -2.08412183    -1.45547196
O       3.78689601     1.11494498     4.73569701    -0.26087348    -0.42014849    -0.47928466
O       0.73809500     4.97973398     4.77847401    -0.99350343     1.23874794    -0.43029330
O       5.10729200     3.48480301     2.97573201     1.35652379    -0.02486463    -1.20808700
O       4.70343699     0.86588998     7.31403500     1.43605961    -0.90186105    -0.78619376
O       3.00085602     2.04684998     2.50162301    -1.34048241    -1.86761892     0.98198437
O       2.61302201     4.28249099     6.86635798    -1.92857851    -3.24868132    -1.88717499
O       0.17350299     0.91898800     2.53478803     0.63552552    -0.89028568    -1.46533343
O       2.35846500     1.30066101     7.04847200    -0.40509545     1.77108399    -2.18615532
O       2.71631699     4.69713899     1.83753001     1.34357082    -0.39078340     0.87797832
