# total energy = -19517.26309268 eV

CRYSTAL
PRIMVEC
        5.17600016     0.00000000     0.00000000
        0.00000000     5.50899976     0.00000000
        0.00000000     0.00000000     9.26300011
PRIMCOORD
23 1
Ti      1.82218900     3.24328498     3.44515102     0.04618012    -0.08285692     2.40524605
Ti      3.45752202     2.19213703     5.75419700    -0.10900967    -0.09011669    -0.94979106
Ti      4.35096700     2.08522200     1.52333599     0.71824308     1.99833925    -2.38844568
Ti      0.85637098     3.47305400     7.73635099    -2.00824700    -0.37571107     0.96566300
Ti      1.91090498     0.24846899     1.28719498     0.60748711    -0.24907648    -0.98025607
Ti      3.19747802     4.98963600     7.96790700    -0.33396174     1.67548982     0.77854910
Ti      0.81994999     0.49793701     5.92957698    -0.06432697     0.70325303    -1.79703157
Ti      4.53526700     5.01231902     3.34065402    -0.82773457    -0.58236665     2.69839125
O       1.77569199     1.78282700     4.81926098    -1.07813260     0.95884417    -1.26128083
O       3.52279100     3.51802100     4.51378399     0.29276391     1.11099131    -1.10796461
O       4.96343098     2.83558301     9.13892201    -0.80309106    -0.70041504     1.22272970
O       3.47170000     0.76250700     0.43253498    -0.40632804    -0.69601640    -1.87230116
O       1.62976301     4.44767001     9.18634402     1.60864163     1.30448670     0.29285570
O       4.17478701     0.79931001     4.69251901     1.05492016    -0.59750866    -0.23796468
O       0.87928902     4.65294602     4.48630699     0.37023462     0.16477538     1.07960430
O       0.23522199     3.61420299     2.40358599    -0.02604991    -1.79016132    -0.59804139
O       5.12118602     2.02245698     6.71345502     0.08606257     1.06868148     0.01319105
O       2.68770797     2.08867499     2.31223401    -0.29132358    -0.80358496    -0.99347746
O       2.57166798     3.54341802     6.93517198     0.61576992    -0.73957373     0.39611073
O       0.23453702     0.70924002     2.15676100     0.61850069     0.67654491    -0.25550733
O       5.04074002     5.04994098     7.37135501    -0.43637807    -0.96545474    -0.43851466
O       2.50452401     0.82020198     6.86044898    -0.13294614    -1.29307871     1.75025701
O       2.80235100     4.72713699     2.38773702     0.49872581    -0.69548443     1.27797810
