# total energy = -4981.56911791 eV

CRYSTAL
PRIMVEC
        2.61079515     0.00000000     0.00000000
        0.00000000     4.09072459     0.00000000
        0.00000000    -0.00005309     4.09072459
PRIMCOORD
6 1
Ti      1.30539753     2.04533571     2.04536225     0.00000000     0.00000000     0.00000000
Ti      0.00000000     0.00000000     0.00000000     0.00000000     0.00000000     0.00000000
O       1.30539753     0.79721162     0.79722196     0.00000000     2.27772211     2.27772211
O       1.30539753     3.29345980     3.29350254     0.00000000    -2.27772211    -2.27772211
O       0.00000000     1.24810257     2.84258504     0.00000000    -2.27623113     2.27623113
O       0.00000000     2.84256884     1.24813946     0.00000000     2.27623113    -2.27623113
