# total energy = -4987.54479274 eV

CRYSTAL
PRIMVEC
        4.39263595     0.00000000     0.00000000
       -0.00000887     3.97429011     0.00000000
       -2.19634897    -1.98718495     5.35241044
PRIMCOORD
6 1
Ti     -0.00019202     2.98086692     1.33810235    -0.00178409     0.00017072     1.24847854
Ti      2.19646978    -0.99376164     4.01430746     0.00178409    -0.00017072    -1.24847854
O       0.00004463     0.99356504     0.87186383    -0.00035018    -0.00138814    -0.68506992
O       2.19623296     0.99354012     4.48054609     0.00035018     0.00138814     0.68506992
O      -0.00002252    -0.99355115     3.54806894    -0.00221758    -0.00024940    -1.43700295
O       2.19630011     2.98065626     1.80434098     0.00221758     0.00024940     1.43700295
