# total energy = -19914.08666459 eV

CRYSTAL
PRIMVEC
        6.47595436     0.00000000     0.00000000
        1.36486026     6.75588425     0.00000000
        0.00000000     0.00000000    11.64950121
PRIMCOORD
24 1
Ti      3.15603680     4.00353075     4.32188201    -0.20344556    -1.70055217     0.70726446
Ti      4.68477750     2.75235366     7.32761966     0.20344556     1.70055217    -0.70726446
Ti      6.14113788     2.75235608     1.50282228     0.18241084    -0.14398954    -0.36770825
Ti      1.69967645     4.00352859    10.14667952    -0.18241084     0.14398954     0.36770825
Ti      2.47360683     0.62558888     1.50286899    -0.20344556    -1.70055217    -0.70726446
Ti      5.36720749     6.13029574    10.14663281     0.20344556     1.70055217     0.70726446
Ti      1.01724637     0.62558626     7.32757295    -0.18241084     0.14398954    -0.36770825
Ti      6.82356795     6.13029835     4.32192872     0.18241084    -0.14398954     0.36770825
O       2.53027082     2.37886172     5.94465147     1.75096381     1.89644151    -0.49920995
O       5.31054348     4.37702269     5.70485019    -1.75096381    -1.89644151     0.49920995
O       1.66893055     2.37888893     0.11993816    -0.92494416     0.41597019     0.72790092
O       6.17188382     4.37699554    11.52956318     0.92494416    -0.41597019    -0.72790092
O       4.62811349     0.99908062     0.11990034    -1.75096381    -1.89644151    -0.49920995
O       3.21270081     5.75680380    11.52960100     1.75096381     1.89644151     0.49920995
O       5.48945383     0.99905347     5.94468929     0.92494416    -0.41597019     0.72790092
O       2.35136041     5.75683102     5.70481238    -0.92494416     0.41597019    -0.72790092
O       1.06547171     4.10931169     3.14682102     0.49703222     1.21556249     1.43544846
O       6.77534259     2.64657272     8.50268065    -0.49703222    -1.21556249    -1.43544846
O       4.00793843     2.64650962     2.67796687     0.59559138     1.44402489     0.64213145
O       3.83287587     4.10937480     8.97153460    -0.59559138    -1.44402489    -0.64213145
O       0.38304172     0.73136962     2.67792965     0.49703222     1.21556249    -1.43544846
O       7.45777259     6.02451486     8.97157182    -0.49703222    -1.21556249     1.43544846
O       3.15044588     0.73143266     8.50271781    -0.59559138    -1.44402489     0.64213145
O       4.69036842     6.02445176     3.14678380     0.59559138     1.44402489    -0.64213145
