# total energy = -19075.49623719 eV

CRYSTAL
PRIMVEC
        7.60600008     0.00000000     0.00000000
        0.00000000     7.60600008     0.00000000
       -1.89786986    -1.89786986     4.85670466
PRIMCOORD
22 1
Ti      3.81599701     6.58018602     1.17798301     1.32235304    -0.32443889    -0.29131972
Ti      3.78490297     2.87580001     1.15447600    -0.10524609    -0.08178014     0.29590580
Ti      0.25797603     6.71454100     1.02042800    -0.64926035    -1.16394449     0.47791220
Ti     -0.08125998     2.80055502     1.23800801     0.11309310     1.55376810     0.13053316
Ti      5.63414923     2.85631422     3.60014079    -0.47466053     0.73368487     0.73658276
Ti      5.98294720    -0.79713880     3.64780580     0.68723736    -1.96561784    -0.86984592
Ti      1.83007824     2.79816722     3.57700183     0.55501242    -1.07662079     0.09449682
Ti      1.50478621    -1.17655375     3.82355382    -0.51443037     1.53881918     0.28413426
O       3.84123802     4.68977099     0.70199701    -0.20967663     1.70008603     1.04029572
O       4.10656199     1.04747499     0.65512302    -0.37883368    -1.61499303     1.28286757
O      -0.15750400     4.81709903     0.76202402     1.04846463     0.64185429    -0.28502797
O      -0.17920201     0.95511498     0.86245102     0.50544050     0.19802927    -0.20316582
O       5.94476924     4.86594722     3.96847779    -0.39418060    -0.23786390     0.01292211
O       5.68584424     0.98449321     4.07227183     0.11630030     0.04986271    -0.29007865
O       2.12911921     4.64043421     4.14537381    -0.99917528     1.54269769    -0.74752770
O       1.55197522     0.98949325     4.11688280     0.23723989    -1.05161604    -1.35277512
O       3.73705122     2.79032322     3.22779781     1.12071035    -0.28331690    -0.04164957
O      -0.05227578     2.85831123     3.18056880     0.29692139     0.12981350    -0.05257522
O       5.62234598     6.53344199     1.76803300     0.01485867     0.93464263     1.21877046
O       5.68627298     3.04690503     1.65303299    -0.10558779    -0.53609269    -0.14711138
O       2.09093399     6.66050200     2.08354001    -0.22010065    -0.00779070    -1.49262313
O       1.95967099     3.02430498     1.60313698    -1.96647967    -0.67918209     0.19927960
