# total energy = -19891.92070433 eV

CRYSTAL
PRIMVEC
        8.50117349     0.00000000     0.00000000
        0.00002643     3.01593980     0.00000000
        0.00000000     0.00000000    13.52465000
PRIMCOORD
24 1
Ti      3.08128197     1.78724303     5.01754880    -0.05391323     0.26512814     1.87121615
Ti      5.41991760     1.22869648     8.50710160     0.05391323    -0.26512814    -1.87121615
Ti      7.33172371     1.22869745     1.74472237    -0.05194736    -0.26514691    -1.87200651
Ti      1.16947592     1.78724217    11.77992815     0.05194736     0.26514691     1.87200651
Ti      3.08126910     0.27927319     1.74477660    -0.05394511     0.26273136    -1.87200831
Ti      5.41993053     2.73666643    11.77987392     0.05394511    -0.26273136     1.87200831
Ti      1.16946300     0.27927216     8.50704736     0.05192550     0.26263031    -1.87134445
Ti      7.33173663     2.73666746     5.01760304    -0.05192550    -0.26263031     1.87134445
O       2.69068426     1.06196358     6.90152553     2.98006496     0.19806758    -0.94733874
O       5.81051537     1.95397598     6.62312487    -2.98006496    -0.19806758     0.94733874
O       1.55997054     1.06197582     0.13924388    -2.98073602     0.19824113    -0.94650159
O       6.94122915     1.95396374    13.38540612     2.98073602    -0.19824113     0.94650159
O       5.81050245     0.44600603     0.13919995    -2.98010353    -0.19729625    -0.94617994
O       2.69069718     2.56993348    13.38545004     2.98010353     0.19729625     0.94617994
O       6.94121622     0.44599384     6.90156940     2.97904398    -0.19766803    -0.94723641
O       1.55998329     2.56994572     6.62308101    -2.97904398     0.19766803     0.94723641
O       0.30888316     1.83446554     3.65334544    -0.88170436     0.38648683     2.13319469
O       8.19231647     1.18147396     9.87130491     0.88170436    -0.38648683    -2.13319469
O       4.55948115     1.18144601     3.10902273    -0.88095103    -0.38650123    -2.13195748
O       3.94171848     1.83449356    10.41562744     0.88095103     0.38650123     2.13195748
O       0.30887024     0.32649565     3.10897956    -0.88126753     0.38760732    -2.13127716
O       8.19232939     2.68944392    10.41567061     0.88126753    -0.38760732     2.13127716
O       3.94170561     0.32652360     9.87134802     0.88113024     0.38731267    -2.13448898
O       4.55949402     2.68941590     3.65330227    -0.88113024    -0.38731267     2.13448898
