# total energy = -19959.05983418 eV

CRYSTAL
PRIMVEC
        7.60600008     0.00000000     0.00000000
        0.00000000     7.60600008     0.00000000
       -1.89786986    -1.89786986     4.85670466
PRIMCOORD
24 1
Ti      3.89333197     6.59073098     1.24984300     1.61089803    -0.55389245    -0.07179063
Ti      3.60401500     2.60846500     1.34498801    -1.60779162     1.20241232     0.62510972
Ti      0.29267000     6.68614402     1.07046298    -2.22676745    -0.04651564     1.33551195
Ti     -0.16819603     2.88804300     1.05639501     2.08901824     0.52892291     1.06409746
Ti      5.75582121     3.06846720     3.57783279     1.04143241    -1.45496236    -0.14730241
Ti      5.73361423    -0.85025475     3.56021479     0.44457964     1.54417479    -0.54044866
Ti      1.77284523     2.75201121     3.89520981    -0.14559134     0.33979661    -2.24654541
Ti      1.74827521    -0.97137078     3.62071181    -0.38691672    -0.62538045     1.40404988
O       3.40349000     4.61174401     0.88466302     1.12153156     0.57627673     0.33590704
O       3.92065001     0.84115603     0.71089799    -0.07018240     1.75214343     1.91351133
O       0.26984097     4.71566199     0.67433999    -0.47572445     2.64576152    -0.25772979
O       0.15893701     1.09247998     0.81814999    -0.77624539    -1.31404452    -0.73150072
O      -1.56254876     4.96716724     4.05925280    -1.33836022    -2.35830643     0.25672629
O       6.02029622     1.07904623     3.94396381    -1.31168759    -1.12521852    -0.12939596
O       1.82930723     4.75527720     4.26966680     0.07497288    -1.55711670    -2.14423090
O       1.58022921     0.84474321     4.07640582     0.31600669    -0.10623442     0.47259156
O       3.67555522     2.60942620     3.30392980     1.29607507     0.60135426     0.13737152
O       3.93510925    -1.05713480     3.16390982    -0.22310139     0.26371069     1.30490424
O      -0.01098979     3.11934722     3.15105182    -1.29136661    -0.47291758     0.28849819
O      -0.05667277    -1.14967478     3.05536879     2.36033477     0.67751113     0.29674012
O       5.84751598     6.61299601     1.48622902    -1.08267266     0.06737347    -0.00214199
O       5.66426899     3.12175799     1.56830103    -1.05938977    -0.56454170     0.33034240
O       1.99572400     6.72055399     1.82157298     0.02178188     0.40749429    -2.30886486
O       1.77692799     2.75065297     1.83402997     1.61916644    -0.42780164    -1.18541064
