# total energy = -19073.49780587 eV

CRYSTAL
PRIMVEC
        5.17600016     0.00000000     0.00000000
        0.00000000     5.50899976     0.00000000
        0.00000000     0.00000000     9.26300011
PRIMCOORD
22 1
Ti      1.88585098     3.21174898     3.27129301    -0.31991734     2.13529811     0.37799447
Ti      3.38623798     2.22804699     5.98704198    -0.92685835     0.65276657    -2.02260405
Ti      4.51904200     2.22915599     1.31344302    -0.49984218    -0.33249313    -3.01382613
Ti      0.64579199     3.36548201     8.05275501     1.40233958    -0.46022995     1.00971064
Ti      1.87417701     0.59817900     1.31890503     0.36104910    -1.51759446    -2.17627123
Ti      3.30358801     4.99547298     8.03630199     0.34057179     0.88898830     0.62256664
Ti      0.70722200     0.51821402     5.90217401    -0.31224208    -0.14717643    -1.70662229
Ti      4.46765000     4.86972999     3.48556899    -0.70073669     1.15833100     1.08604183
O       3.21668202     3.53396897     4.47453698     1.80200820    -0.16644351     1.59004535
O       0.81992898     1.92492500     0.04343799    -0.15552969     0.48970946    -0.03158961
O       4.31471799     3.85313101     9.13840802     0.61993922    -0.67033261    -0.06409325
O       3.38418001     0.86452201     0.27132198     1.01835700     0.46167311    -2.32714182
O       1.84173199     4.72176901     8.92267098    -3.70465970    -0.25212016     1.57801721
O       4.34011903     1.01632301     4.67000299     1.10469879    -2.27099224    -0.77062264
O       0.97895399     4.57306603     4.41184900    -1.79783375     1.85721263     1.59858913
O       0.06384201     3.33706302     2.60037097     0.17270132    -0.22218248    -0.52735711
O       5.04753100     2.35783200     6.54631698     2.61667796    -0.37053261     1.55580570
O       2.74674198     1.99927700     2.17473302    -0.15439994     0.11027157     1.13060370
O       2.42251498     3.15980399     7.26000198     0.20029312     0.77180046    -0.74506535
O       0.05399402     0.66479601     1.93484200     0.38747542    -1.80076378     2.42061431
O       2.58318901     0.61781201     6.52091901    -1.47527923    -1.06310039     0.50346615
O       2.70735701     4.64715698     2.33877299     0.02118718     0.74791053    -0.08826163
