# total energy = -19898.91754571 eV

CRYSTAL
PRIMVEC
        8.01206501     0.00000000     0.00000000
        0.00003153     5.68483994     0.00000000
        0.00000000     0.00000000    12.44777316
PRIMCOORD
24 1
Ti      2.90400702     3.36883086     4.61803506     0.55554335    -0.75786276     1.64521147
Ti      5.10808966     2.31600908     7.82973824    -0.55554335     0.75786276    -1.64521147
Ti      6.90990141     2.31601106     1.60580183     0.55506898     0.75715777    -1.64558557
Ti      1.10219527     3.36882916    10.84197154    -0.55506898    -0.75715777     1.64558557
Ti      2.90399126     0.52641103     1.60585173     0.55554335    -0.75786276    -1.64521147
Ti      5.10810543     5.15842912    10.84192163    -0.55554335     0.75786276     1.64521147
Ti      1.10217950     0.52640891     7.82968827    -0.55506898    -0.75715777    -1.64558557
Ti      6.90991718     5.15843124     4.61808496     0.55506898     0.75715777     1.64558557
O       2.53588033     2.00172881     6.35200338     0.66719843     1.51943049    -1.66823005
O       5.47621635     3.68311120     6.09576991    -0.66719843    -1.51943049     1.66823005
O       1.47022139     2.00175172     0.12815681    -0.66664642     1.51973259    -1.66929912
O       6.54187543     3.68308829    12.31961608     0.66664642    -1.51973259     1.66929912
O       5.47620065     0.84069116     0.12811639    -0.66719843    -1.51943049    -1.66823005
O       2.53589603     4.84414878    12.31965649     0.66719843     1.51943049     1.66823005
O       6.54185966     0.84066832     6.35204373     0.66664642    -1.51973259    -1.66929912
O       1.47023695     4.84417176     6.09572950    -0.66664642     1.51973259     1.66929912
O       0.29111619     3.45784191     3.36245410    -1.86309712     0.53755256     0.09669434
O       7.72098049     2.22699810     9.08531920     1.86309712    -0.53755256    -0.09669434
O       4.29715766     2.22694509     2.86147214    -1.86371290    -0.53748649    -0.09681852
O       3.71493902     3.45789492     9.58630095     1.86371290     0.53748649     0.09681852
O       0.29110042     0.61542187     2.86143235    -1.86309712     0.53755256    -0.09669434
O       7.72099626     5.06941807     9.58634068     1.86309712    -0.53755256     0.09669434
O       3.71492333     0.61547488     9.08535886     1.86371290     0.53748649    -0.09681852
O       4.29717336     5.06936513     3.36241437    -1.86371290    -0.53748649     0.09681852
