# total energy = -4917.77128478 eV

CRYSTAL
PRIMVEC
        5.65242925     0.00000000     0.00000000
       -0.00000733     2.14402459     0.00000000
       -2.82624851    -1.07211406     6.23825016
PRIMCOORD
6 1
Ti     -0.00024152     1.60807912     1.55956227    -0.04112327    -0.02817364    75.62401080
Ti      2.82641498    -0.53616887     4.67868740     0.04112327     0.02817364   -75.62401080
O       0.00006001     0.53598908     1.01615989     0.03984929     0.02867244   -70.42759341
O       2.82611329     0.53592112     5.22208983    -0.03984929    -0.02867244    70.42759341
O      -0.00002450    -0.53604814     4.13528497    -0.00132566     0.00005322    -0.77310581
O       2.82619769     1.60795828     2.10296475     0.00132566    -0.00005322     0.77310581
