# total energy = -19946.94501546 eV

CRYSTAL
PRIMVEC
        6.11773956     0.00000000     0.00000000
        0.00002408     4.34074988     0.00000000
        0.00000000     0.00000000     9.50469501
PRIMCOORD
24 1
Ti      2.21740071     2.57232434     3.52617405    -0.01527416     1.45549947    -2.09275148
Ti      3.90036303     1.76842554     5.97852106     0.01527416    -1.45549947     2.09275148
Ti      5.27616503     1.76842705     1.22613550    -0.01411716    -1.45529224     2.09292349
Ti      0.84159871     2.57232304     8.27855966     0.01411716     1.45529224    -2.09292349
Ti      2.21738867     0.40194951     1.22617361    -0.01603238     1.45558072     2.09185751
Ti      3.90037507     3.93880053     8.27852156     0.01603238    -1.45558072    -2.09185751
Ti      0.84158668     0.40194789     5.97848290     0.01365513     1.45534700     2.09364622
Ti      5.27617707     3.93880215     3.52621216    -0.01365513    -1.45534700    -2.09364622
O       1.93631173     1.52845184     4.85017312     1.43410197    -1.12862060     1.68810546
O       4.18145202     2.81229809     4.65452199    -1.43410197     1.12862060    -1.68810546
O       1.12261091     1.52846934     0.09785617    -1.43240658    -1.12888954     1.68792754
O       4.99515294     2.81228059     9.40683863     1.43240658     1.12888954    -1.68792754
O       4.18144003     0.64192310     0.09782531    -1.43457351     1.12774669     1.68742412
O       1.93632371     3.69882678     9.40686949     1.43457351    -1.12774669    -1.68742412
O       4.99514090     0.64190565     4.85020393     1.43240375     1.12940376     1.68832632
O       1.12262279     3.69884433     4.65449113    -1.43240375    -1.12940376    -1.68832632
O       0.22228639     2.64029014     2.56745526     0.51670554    -0.17806156     1.21525781
O       5.89547735     1.70045979     6.93723985    -0.51670554     0.17806156    -1.21525781
O       3.28116302     1.70041932     2.18492253     0.51563673     0.17877298    -1.21654414
O       2.83660073     2.64033062     7.31977243    -0.51563673    -0.17877298     1.21654414
O       0.22227435     0.46991515     2.18489214     0.51614401    -0.17818111    -1.21670972
O       5.89548939     3.87083473     7.31980276    -0.51614401     0.17818111     1.21670972
O       2.83658874     0.46995562     6.93727014    -0.51633710    -0.17836443    -1.21526836
O       3.28117500     3.87079431     2.56742492     0.51633710     0.17836443     1.21526836
