# total energy = -19898.71587811 eV

CRYSTAL
PRIMVEC
        6.80218848     0.00000000     0.00000000
        3.40689277     6.38785478     0.00000000
        0.00000000     0.00000000    12.59830438
PRIMCOORD
24 1
Ti      4.48438770     3.78543683     4.67388109    -0.17630781    -2.01776806     0.26140801
Ti      5.72469374     2.60241811     7.92442342     0.17630781     2.01776806    -0.26140801
Ti      7.25442087     2.60242039     1.62522083    -0.26201685    -1.49272726     0.52879821
Ti      2.95466078     3.78543485    10.97308375     0.26201685     1.49272726    -0.52879821
Ti      2.78094157     0.59150966     1.62527137    -0.17630781    -2.01776806    -0.26140801
Ti      7.42814000     5.79634554    10.97303328     0.17630781     2.01776806     0.26140801
Ti      1.25121432     0.59150720     7.92437289     0.26201685     1.49272726     0.52879821
Ti      8.95786723     5.79634793     4.67393156    -0.26201685    -1.49272726    -0.52879821
O       3.35256053     2.24927231     6.42881832     1.72491030     1.89090927    -0.85962424
O       6.85652099     4.13858269     6.16948620    -1.72491030    -1.89090927     0.85962424
O       2.44783707     2.24929802     0.12970661     0.23134332    -1.25283193     1.86025399
O       7.76124453     4.13855702    12.46859750    -0.23134332     1.25283193    -1.86025399
O       5.15307473     0.94465526     0.12966572    -1.72491030    -1.89090927    -0.85962424
O       5.05600677     5.44319967    12.46863838     1.72491030     1.89090927     0.85962424
O       6.05779828     0.94462960     6.42885914    -0.23134332     1.25283193     1.86025399
O       4.15128318     5.44322541     6.16944531     0.23134332    -1.25283193    -1.86025399
O       2.31940453     3.88545534     3.40311631     0.62563422     3.25500444     3.01855054
O       7.88967700     2.50239965     9.19518813    -0.62563422    -3.25500444    -3.01855054
O       4.98284287     2.50233999     2.89607595     0.41654946     2.19151787     2.14739130
O       5.22623866     3.88551500     9.70222829    -0.41654946    -2.19151787    -2.14739130
O       0.61595827     0.69152792     2.89603574     0.62563422     3.25500444    -3.01855054
O       9.59312324     5.69632701     9.70226850    -0.62563422    -3.25500444     3.01855054
O       3.52279240     0.69158758     9.19522828    -0.41654946    -2.19151787     2.14739130
O       6.68628911     5.69626735     3.40307610     0.41654946     2.19151787    -2.14739130
