# total energy = -4975.64393288 eV

CRYSTAL
PRIMVEC
        3.84202241     0.00000000     0.00000000
        0.00000000     6.01987312     0.00000000
        0.00000000    -0.00007812     6.01987312
PRIMCOORD
6 1
Ti      1.92101114     3.00989743     3.00993649     0.00000000     0.00000000     0.00000000
Ti      0.00000000     0.00000000     0.00000000     0.00000000     0.00000000     0.00000000
O       1.92101114     1.17316937     1.17318459    -0.00000000    -0.95389480    -0.95389480
O       1.92101114     4.84662550     4.84668839     0.00000000     0.95389480     0.95389480
O       0.00000000     1.83669639     4.18312230     0.00000000     0.95422595    -0.95422595
O       0.00000000     4.18309847     1.83675068     0.00000000    -0.95422595     0.95422595
