# total energy = -19517.06991694 eV

CRYSTAL
PRIMVEC
        5.17600016     0.00000000     0.00000000
        0.00000000     5.50899976     0.00000000
        0.00000000     0.00000000     9.26300011
PRIMCOORD
23 1
Ti      1.91918698     3.24447002     3.39421400    -0.91731056    -0.79768428     2.89503032
Ti      3.32765202     2.27638400     5.89150601     1.01119982     0.00072274    -2.62676518
Ti      4.38331899     2.01197302     1.55632701     0.99193762     0.70124859    -2.65648868
Ti      0.90028402     3.39162098     7.70210899    -1.94420465    -0.13892935     2.34455796
Ti      1.84206998     0.20373901     1.38156400     1.74163302    -0.63630893    -1.69681456
Ti      3.23621401     5.27859800     7.88373400     0.32487623     0.08130603     1.94853259
Ti      0.73618202     0.56724002     5.89955702    -0.71832509    -0.19156577    -2.76727679
Ti      4.47588702     4.88224201     3.39240501     0.58331590    -0.53784644     3.49926910
O       1.76596101     1.76107702     4.78926700     0.47334592     1.15630985    -1.04297970
O       3.58813900     3.56234801     4.49899502    -0.13121167    -0.20181368    -0.54586829
O       0.00149598     2.66728200     9.22879599    -0.14604488    -0.57465514     0.00322057
O       3.53160498     0.47062998     0.41497202     0.72598313     0.97488658    -1.43348876
O       1.67791898     4.77047200     8.98690299    -0.49684916    -0.14690800     0.41556319
O       4.21913699     0.75744601     4.91476901     0.40005609    -0.59981751    -0.84992783
O       1.03644201     4.73309103     4.46499099    -0.46775814    -0.53444873    -0.00005914
O       0.27245098     3.37563501     2.44738303    -0.44315628    -0.08558743     0.14356428
O       0.02930499     2.31009101     6.47119498    -1.01578616    -0.12504462     0.91814256
O       2.67621001     1.81959899     2.22075800    -1.07464284     0.55366105     0.21216365
O       2.51005201     3.78199499     6.88437398     1.03548776    -0.25306812    -0.09097492
O       0.19282801     0.61305502     2.23315699     0.30647612     0.60748171    -0.29493161
O       4.98206998     4.77682499     7.13536598    -0.33609010     1.05233209     0.38775670
O       2.33446898     1.13758800     7.04151099    -0.54800513    -0.53304593     1.47846148
O       2.83381000     4.49530798     2.32779902     0.64507357     0.22877504    -0.24068723
