# total energy = -39037.08032959 eV

CRYSTAL
PRIMVEC
        7.60600008     0.00000000     0.00000000
        0.00000000     7.60600008     0.00000000
       -3.79573973    -3.79573973     9.71340985
PRIMCOORD
46 1
Ti      1.95802245     4.79169947     6.11893062    -0.92451145     0.65618588     0.71687808
Ti      3.76887599     6.79290098     1.30680602     0.03824543     0.84598041    -0.58171333
Ti      1.82970347     1.00272845     6.02199361     0.88829513    -1.60166957     1.52499487
Ti      3.80510098     3.00634200     1.13271502     0.00153726    -1.03514066     0.75840115
Ti     -1.92028555     4.63883244     6.01668464     0.93871577     0.33297315     0.67902525
Ti      0.03941799     6.77052499     1.27641400    -0.21206852    -0.19428368    -0.44563559
Ti     -1.97139857     0.81814343     5.99596761    -0.97156574    -0.47195958     0.61680351
Ti     -0.14825202     2.96361200     1.16411999     0.72668761     0.02214055    -0.47150296
Ti      3.84431746     0.99170944     8.50683963    -0.72423863    -0.33862907    -0.56424885
Ti      5.72051799     2.68028002     3.65146199    -0.03807574     1.24918225    -0.40065335
Ti      3.87625844    -2.79179455     8.51338264    -0.70251023     0.03557354     0.69779200
Ti      5.72950099    -1.05628002     3.58189402    -0.04292818    -0.74169849     0.47951272
Ti     -0.07855456     0.97833147     8.29865463     0.46684257     0.17096428     1.31189250
Ti      1.96194201     2.71130298     3.37368902    -0.34068904     0.44454647     1.43365768
Ti     -0.00870756    -2.83388155     8.61404565     0.65787767     0.29802362    -0.35534587
Ti      1.92497501    -1.05905402     3.79884600    -0.36281364    -0.13828683     0.41755862
O       1.95953246    -0.96615457     5.93083563     0.07447974    -0.17554290    -2.40173417
O       3.83490498     1.10561902     0.86341798     0.32258358    -1.43950643    -0.80967565
O      -1.87563754     2.75122845     5.69959962     0.22915634    -0.27052695    -1.04107965
O       0.12985798     4.77834499     0.78360202    -0.03488551    -0.04698024     0.35388728
O      -1.97767154    -1.12011155     5.70842264    -0.02244111     1.55991226    -1.08532578
O       0.04378698     1.01187898     0.89441401    -0.45087036    -0.29662237    -0.97923020
O       3.83527943     2.84598346     9.06114264     0.11178492     0.96940370    -1.13750917
O       5.58280200     4.66322100     4.06582201     0.42045780    -0.14070522    -0.17881618
O       3.81156747    -0.89458256     8.87814664    -0.56427739    -0.38919523     0.54358515
O       5.80823500     0.86142002     4.01920102    -0.25480773    -0.05223147     0.24124747
O      -0.07979654     2.76314346     9.01520762    -0.23280576     0.50098144    -0.34528308
O       1.93401098     4.54698902     4.02464900     0.19437984     0.70608895     0.63704015
O      -0.06278154    -0.79866653     8.98569064     0.27641169     0.25966352    -0.56935069
O       1.92725402     0.92959202     4.16941301    -0.13065785     0.68020076    -1.29484531
O       1.82009245     0.96091646     7.96243361     0.33051029     0.61760852     1.01381669
O       3.82051602     2.69597700     3.16771201     0.80152037     0.06172193     0.52010479
O       1.94553143    -2.54286957     8.21394563    -0.59474318    -1.57844684    -0.51645717
O       3.87651398    -0.75353401     3.22770002    -1.32676711    -0.93931484     0.57560902
O      -2.02079954     0.57854144     7.96462562     1.09626763     1.43520806     0.16141186
O       0.00711701     2.66067998     3.00356800    -0.95007311     0.19763486     1.84897661
O      -1.91294856    -2.66614956     8.07161960     0.86361690    -0.60266012     0.49831752
O      -0.00441302    -0.98422301     3.34519600     0.67245120    -0.28836501    -0.08371026
O       3.85161947     4.52725446     6.53198665    -1.23859727    -0.28840178     0.08789319
O       5.70579300     6.64504002     1.55603703    -0.15729938    -0.38361722     0.84307327
O       3.77324345     1.05416146     6.46713264    -0.50177539     0.47570414    -0.53405741
O       5.65870797     3.22523998     1.64420901    -0.41338572    -0.24879520    -0.28871468
O       0.05212846     4.75652347     6.55402460     0.12117074    -0.94749146    -0.11929306
O       1.85872101     6.75160198     1.70336600     1.36479529    -0.47814180     0.44520416
O      -0.08850452     0.89129446     6.42831061     0.44569730     0.44595184    -1.05853822
O       1.93459201     2.74812298     1.55580302     0.14930299     1.12256360    -1.14396290
