# total energy = -19072.46062214 eV

CRYSTAL
PRIMVEC
        5.17600016     0.00000000     0.00000000
        0.00000000     5.50899976     0.00000000
        0.00000000     0.00000000     9.26300011
PRIMCOORD
22 1
Ti      1.64575400     3.28548798     3.26614501    -0.29250629     1.58353763    -0.26009238
Ti      3.92493301     2.30843801     5.86558998    -0.52925587    -0.92001561    -0.67769497
Ti      4.29064799     2.07428602     1.25009002     2.22862893     1.08484421     1.77400605
Ti      0.92260699     3.17370801     8.19242098     0.79225771     0.68031492    -0.49649949
Ti      1.75353100     0.55890198     1.38750698    -1.43291875    -0.13711364    -1.46397074
Ti      3.22736801     5.27260401     7.93332399    -0.98597189    -1.10110953     2.56005222
Ti      1.26007798     0.06869001     6.01425598    -1.31933894     0.85863025    -1.73497489
Ti      4.08317003     4.98997298     3.55789498     1.87166969    -0.58435232     0.96347473
O       3.11400401     3.36438201     4.49449802     0.65943241     0.45482960     0.66967955
O       0.98459201     1.81239398     0.17007101    -1.23262022     1.35094012    -0.70199241
O       4.43603499     3.91322899     8.19255502     0.23059770    -1.26379409     0.03219537
O       3.43766300     0.93377199     0.23256202    -1.48181472    -1.36138060    -2.85206280
O       1.72385400     4.57520999     0.05948799     0.22619417    -0.16202018    -1.12570317
O       3.71824199     0.76860699     4.78072899     0.90277379     0.38526247    -1.21382854
O       0.73805399     4.87532599     4.30310498     0.64294726    -0.38763148     1.68095933
O       4.90902098     3.40662099     2.49423400     1.62539931    -0.10846768    -0.01231327
O       0.54511501     1.88386302     6.45505602    -1.56241009     0.29456369     0.05181238
O       2.70830498     1.93540700     2.42873202    -1.19307073     0.59421970    -0.75008312
O       2.05335500     4.05572801     6.77152899     0.51225470     0.08281552     1.16804771
O       5.04230199     0.60379997     2.04476000     1.15356726    -0.65551354     1.53134138
O       2.78268503     1.07679702     6.76706401    -0.05025480     1.25111932     1.13762872
O       2.55125401     4.91581598     2.55237899    -0.76556013    -1.93967874    -0.27998141
