# total energy = -19920.15295432 eV

CRYSTAL
PRIMVEC
        6.32476946     0.00000000     0.00000000
        0.00002226     3.62463632     0.00000000
        0.00000000     0.00000000     9.56884756
PRIMCOORD
24 1
Ti      2.29243800     2.14795624     3.54997433    -0.77543060     2.30225687    -2.82342482
Ti      4.03235387     1.47668038     6.01887363     0.77543060    -2.30225687     2.82342482
Ti      5.45471434     1.47668166     1.23441145    -0.77387997    -2.30269524     2.82487286
Ti      0.87007753     2.14795506     8.33443661     0.77387997     2.30269524    -2.82487286
Ti      2.29242697     0.33563813     1.23444980    -0.77610320     2.30268470     2.82184359
Ti      4.03236490     3.28899859     8.33439826     0.77610320    -2.30268470    -2.82184359
Ti      0.87006650     0.33563670     6.01883528     0.77307779     2.30232706     2.82568045
Ti      5.45472536     3.28899997     3.55001268    -0.77307779    -2.30232706    -2.82568045
O       2.00183737     1.27629612     4.88290982     3.99319517    -2.41378905     4.22889934
O       4.32295450     2.34834044     4.68593814    -3.99319517     2.41378905    -4.22889934
O       1.16060012     1.27631073     0.09851663    -3.99229066    -2.41514480     4.23046206
O       5.16419180     2.34832589     9.47033102     3.99229066     2.41514480    -4.23046206
O       4.32294347     0.53602228     0.09848559    -3.99273494     2.41446140     4.23015455
O       2.00184840     3.08861433     9.47036206     3.99273494    -2.41446140    -4.23015455
O       5.16418077     0.53600768     4.88294086     3.99182066     2.41489746     4.22972132
O       1.16061100     3.08862894     4.68590705    -3.99182066    -2.41489746    -4.22972132
O       0.22980703     2.20470931     2.58478454     2.73206475    -0.60045900     1.84682666
O       6.09498484     1.41992731     6.98406342    -2.73206475     0.60045900    -1.84682666
O       3.39219957     1.41989342     2.19966984     2.73342486     0.60014147    -1.84762087
O       2.93259230     2.20474320     7.36917792    -2.73342486    -0.60014147     1.84762087
O       0.22979600     0.39239110     2.19963929     2.73242496    -0.59958508    -1.84746583
O       6.09499586     3.23224552     7.36920846    -2.73242496     0.59958508     1.84746583
O       2.93258127     0.39242499     6.98409391    -2.73328911    -0.60044151    -1.84754425
O       3.39221059     3.23221163     2.58475399     2.73328911     0.60044151     1.84754425
