# total energy = -4926.29630592 eV

CRYSTAL
PRIMVEC
        5.24454128     0.00000000     0.00000000
       -0.00000685     2.24766070     0.00000000
       -2.62230072    -1.12391166     5.69149745
PRIMCOORD
6 1
Ti     -0.00022410     1.68581532     1.42287431    -0.03601500    -0.02828497    64.92749418
Ti      2.62245754    -0.56206623     4.26862304     0.03601500     0.02828497   -64.92749418
O       0.00005572     0.56190140     0.92709842     0.03481326     0.02794096   -57.46385430
O       2.62217757     0.56184764     4.76439898    -0.03481326    -0.02794096    57.46385430
O      -0.00002193    -0.56194208     3.77284715    -0.00117937     0.00015478    -0.73500076
O       2.62225516     1.68569107     1.91865025     0.00117937    -0.00015478     0.73500076
