# total energy = -19958.77890917 eV

CRYSTAL
PRIMVEC
        7.60600008     0.00000000     0.00000000
        0.00000000     7.60600008     0.00000000
       -1.89786986    -1.89786986     4.85670466
PRIMCOORD
24 1
Ti      3.75610203     6.72471999     1.29173098     2.00569595     0.34336813    -0.43377612
Ti      3.87354202     2.94269198     1.20153198    -0.83980976    -0.26806846     0.59666765
Ti      0.15005599     6.49946198     1.17121298    -2.36025507     2.11713789     0.51827057
Ti      0.02237499     2.79587900     1.27913699     1.50831715    -1.15457513    -2.97878815
Ti      5.77549422     2.58183125     3.60316583    -1.42398622     1.47545304     0.12298414
Ti      5.60897023    -1.06137578     3.63684680     0.72100084    -1.22002001    -0.29234148
Ti      1.90735420     2.96048123     3.58028384     2.07141594     0.70998469    -0.03353105
Ti      1.81355621    -0.76057376     3.62622880    -0.53951920    -0.85821296     2.19818038
O       3.65235302     4.89235999     0.96358002    -0.11948769    -0.33355911    -1.65682823
O       3.66788802     1.14873401     0.95583800     0.83277111    -1.21703573    -1.22794570
O       0.04023700     4.71035000     0.81159100     0.76705703    -2.16982624    -0.45150337
O      -0.10661699     0.81302697     0.80254202     0.75378859    -0.09868000    -0.79778841
O       5.52783323     4.51327921     4.05978182     1.36621068     1.16019351    -0.32689506
O       5.52509522     0.77937622     4.09776182     1.07251988     2.61575519    -0.36918947
O       1.90186023     4.97463721     3.93886582    -0.31158697    -1.71533268     1.37393196
O       1.87484721     1.07671520     3.89287879     0.55251048     1.11219305     2.28682716
O       3.79649921     2.92051321     3.23346281     1.09965737    -0.53258082    -0.61388427
O       3.83578421    -0.74562778     3.21580380    -0.80612342    -0.51502841     0.07921212
O       0.14417625     2.71062521     3.06295883    -2.67291135     0.20218134     3.13094841
O      -0.02809180    -0.74370375     3.08981379    -0.76817058    -0.76111829     1.46184264
O       5.68072699     6.39549998     1.68100800    -0.46144788     0.57989016    -0.30349287
O       5.85980401     2.70367500     1.52836799    -3.07407584     0.52798163     1.48342937
O       1.89049298    -0.68860698     1.85569603     0.72974131    -0.74233921    -3.97753458
O       1.96776698     2.83497499     1.58846802    -0.10331185     0.74223842     0.21120489
