# total energy = -19519.29850348 eV

CRYSTAL
PRIMVEC
        7.60600008     0.00000000     0.00000000
        0.00000000     7.60600008     0.00000000
       -1.89786986    -1.89786986     4.85670466
PRIMCOORD
23 1
Ti      3.77832302     6.67418800     1.24102802     0.88477375     0.21611364    -0.17801785
Ti      3.81412599     2.89703197     1.17283501     0.23511590    -0.14740217     1.68867393
Ti      0.02163901     6.68168502     1.21534800    -0.80747222    -0.83984370     0.52174850
Ti     -0.02185999     2.80824497     1.01793203    -0.46036031     0.99643577     0.52051283
Ti      5.66207222     2.84363423     3.64896083    -0.96304356    -0.42367991     0.48769294
Ti      5.69089322    -1.06017778     3.60920681     0.37553855     0.76883186    -0.58350976
Ti      2.06670122     2.87739521     3.68223581     0.19213244     0.25162727    -0.10615678
Ti      1.90528623    -0.93448178     3.68207182    -0.25538649    -0.01114291    -0.16650265
O       3.90809702     4.75077301     0.96321600    -0.47328653     0.06686028    -1.02507067
O       3.71837698     1.01724801     0.83399499     0.20707133    -0.40358287    -0.51073903
O      -0.23209000     4.70952200     0.80032900     1.10743316     1.01361897    -0.30732845
O      -0.15712802     0.94559402     0.73196998     0.55411227    -1.25323919     0.16812810
O       5.66079420     4.71221123     4.08306980     0.76127745     0.05640462    -0.44457527
O       5.77271720     0.95263420     4.01222281     0.45781903    -0.17429515    -0.73295442
O       1.91863023     4.78288121     4.08389383    -0.22629856    -0.48923792     0.05726260
O       1.76411222     1.04349822     4.01901480     0.05361446    -0.25645478     0.52304434
O       3.85831520     2.75001923     3.26314183    -0.82313384     0.31493763    -0.77689305
O       3.82565121    -0.94509178     3.19154383    -0.61027290     0.26366313     0.88787784
O       0.02549322    -0.91952675     3.19371382     0.06363766    -0.28461326     0.25756781
O       5.70608902     6.61465398     1.65925098     0.23736073     0.38483309    -0.22627542
O       5.81786100     2.80074600     1.70021798    -0.43975676    -0.06088323    -0.32073341
O       1.95482802     6.61887702     1.63858698    -1.33388959     0.06637254    -0.16672427
O       1.66320002     2.90672798     1.75047299     1.26301376    -0.05532322     0.43297188
