# total energy = -19909.48061089 eV

CRYSTAL
PRIMVEC
        6.55186316     0.00000000     0.00000000
        2.98675032     6.30113731     0.00000000
        0.00000000     0.00000000    12.05042473
PRIMCOORD
24 1
Ti      4.14468068     3.73404810     4.47062160    -0.06807898    -2.25544066     0.44655399
Ti      5.39393258     2.56708913     7.57980320     0.06807898     2.25544066    -0.44655399
Ti      6.86736448     2.56709126     1.55454267    -0.45257886    -1.28693891     0.37576404
Ti      2.67124890     3.73404621    10.49588233     0.45257886     1.28693891    -0.37576404
Ti      2.65130567     0.58347954     1.55459096    -0.06807898    -2.25544066    -0.44655399
Ti      6.88730763     5.71765787    10.49583403     0.06807898     2.25544066     0.44655399
Ti      1.17787374     0.58347722     7.57975490     0.45257886     1.28693891     0.37576404
Ti      8.36073963     5.71766018     4.47066996    -0.45257886    -1.28693891    -0.37576404
O       3.12539155     2.21873754     6.14923951     1.80630631     2.04219097    -0.86252418
O       6.41322171     4.08239969     5.90118535    -1.80630631    -2.04219097     0.86252418
O       2.25396142     2.21876299     0.12406590     0.01712510    -1.04229167     1.73956765
O       7.28465194     4.08237435    11.92635864    -0.01712510     1.04229167    -1.73956765
O       4.91984668     0.93183101     0.12402675    -1.80630631    -2.04219097    -0.86252418
O       4.61876660     5.36930628    11.92639772     1.80630631     2.04219097     0.86252418
O       5.79127689     0.93180560     6.14927859    -0.01712510     1.04229167     1.73956765
O       3.74733632     5.36933170     5.90114621     0.01712510    -1.04229167    -1.73956765
O       2.05475515     3.83270894     3.25512036     0.65313758     2.99734793     2.80954163
O       7.48385805     2.46842830     8.79530450    -0.65313758    -2.99734793    -2.80954163
O       4.68400044     2.46836966     2.77013037     0.60179571     2.14271575     1.79514001
O       4.85461282     3.83276757     9.28029423    -0.60179571    -2.14271575    -1.79514001
O       0.56138010     0.68214020     2.77009187     0.65313758     2.99734793    -2.80954163
O       8.97723310     5.61899704     9.28033273    -0.65313758    -2.99734793     2.80954163
O       3.36123777     0.68219882     8.79534286    -0.60179571    -2.14271575     1.79514001
O       6.17737549     5.61893841     3.25508187     0.60179571     2.14271575    -1.79514001
