# total energy = -4916.93314983 eV

CRYSTAL
PRIMVEC
        6.21814733     0.00000000     0.00000000
       -0.00000769     2.07271578     0.00000000
       -3.10911324    -1.03649276     7.05399054
PRIMCOORD
6 1
Ti     -0.00026612     1.55458626     1.76349720    -0.04129399    -0.02491246    77.71220629
Ti      3.10929234    -0.51836330     5.29049230     0.04129399     0.02491246   -77.71220629
O       0.00006565     0.51815648     1.14903723     0.03967522     0.02592213   -74.86038002
O       3.10896040     0.51806642     5.90495233    -0.03967522    -0.02592213    74.86038002
O      -0.00002853    -0.51824352     4.67603233    -0.00127630    -0.00000051    -0.72485339
O       3.10905446     1.55446637     2.37795723     0.00127630     0.00000051     0.72485339
