# total energy = -39040.44419054 eV

CRYSTAL
PRIMVEC
        7.60629642    -0.00000847    -0.00005503
       -0.00000847     7.60629642    -0.00005503
       -3.80314186    -3.80314186     9.70738094
PRIMCOORD
46 1
Ti      1.88299215     4.81909429     6.13557308     0.02220945     0.00348770    -0.00317686
Ti      3.78457029     6.72069686     1.28188093     0.02216472     0.00352935    -0.00298711
Ti      1.92532065     0.89065566     6.05819009    -0.00213350     0.00524222    -0.00885025
Ti      3.82687855     2.79222483     1.20452675    -0.00207977     0.00520957    -0.00890450
Ti     -1.88222714     4.73461966     6.08792703    -0.01364536     0.00843682    -0.02152554
Ti      0.01934250     6.63620732     1.23422599    -0.01355589     0.00837306    -0.02130520
Ti     -1.92868430     0.96547065     6.02069166     0.00313238    -0.00248651    -0.02911261
Ti     -0.02709662     2.86704983     1.16703118     0.00308173    -0.00243098    -0.02916583
Ti      3.80654996     0.96721290     8.48117546     0.00444672     0.00945626     0.01538137
Ti      5.70812869     2.86878555     3.62747901     0.00435134     0.00936756     0.01543819
Ti      3.81050861    -2.86745065     8.50574895     0.00876232    -0.00055407     0.02971862
Ti      5.71206996    -0.96589905     3.65206008     0.00878701    -0.00049777     0.02964380
Ti     -0.00260745     0.96177376     8.35041102    -0.01308795    -0.00641568     0.01963938
Ti      1.89896560     2.86332222     3.49677170    -0.01304270    -0.00631797     0.01962935
Ti     -0.00005587    -2.86875723     8.58335401    -0.00297760     0.00106161     0.00848979
Ti      1.90150496    -0.96717149     3.72966244    -0.00295394     0.00087212     0.00840854
O       1.89406588    -0.95251478     5.69532569    -0.00573176     0.00242121    -0.01284318
O       3.79564211     0.94907299     0.84165245    -0.00574847     0.00260427    -0.01295914
O      -1.89971880     2.85770315     5.60935003    -0.00355944     0.00742741     0.00628532
O       0.00185855     4.75928730     0.75566835    -0.00359029     0.00728677     0.00616062
O      -1.89725311    -0.95380436     5.67558410     0.00232839    -0.00429683    -0.01803964
O       0.00432241     0.94777661     0.82191274     0.00232299    -0.00418190    -0.01814505
O       3.83832636     2.85444769     8.93653063     0.00858697     0.00165733    -0.01187850
O       5.73989757     4.75600470     4.08282631     0.00861011     0.00163831    -0.01179057
O       3.77728632    -0.95187608     8.87689967    -0.00740067     0.00359106    -0.01444163
O       5.67885560     0.94968128     4.02319065    -0.00740144     0.00360032    -0.01444523
O      -0.03081883     2.74063344     9.01678852    -0.01132931    -0.02399869     0.00680391
O       1.87075658     4.64217047     4.16312074    -0.01133677    -0.02372898     0.00690007
O       0.02296720    -0.85867728     8.92548028     0.00485193    -0.00542194    -0.01965815
O       1.92455140     1.04284188     4.07176843     0.00484139    -0.00545871    -0.01984147
O       1.91606459     1.00522874     8.04282291     0.00372322     0.02226808    -0.00285650
O       3.81763457     2.90677271     3.18916909     0.00361960     0.02224982    -0.00319048
O       1.88015736    -2.89551962     8.14316554     0.01383485    -0.02354720     0.01157305
O       3.78173283    -0.99398062     3.28946658     0.01382817    -0.02352997     0.01154297
O      -1.91745978     0.92548054     8.00704252    -0.01100124     0.00035481    -0.01786069
O      -0.01588235     2.82701109     3.15337919    -0.01097167     0.00041806    -0.01801418
O      -1.88182137    -2.83158057     8.10034164    -0.02013123    -0.01329081    -0.01498285
O       0.01974750    -0.93003827     3.24665558    -0.02013509    -0.01327564    -0.01517234
O       3.78020468     4.63506990     6.50525763     0.00952800     0.02009729     0.02667649
O       5.68176159     6.53664792     1.65154205     0.00979231     0.02006438     0.02671120
O       3.78190786     1.08678623     6.41979102     0.00666430    -0.00534198     0.03008243
O       5.68348138     2.98839030     1.56612347     0.00645938    -0.00537284     0.02995079
O       0.01837558     4.62225984     6.50684885     0.00725386     0.00389805     0.00957505
O       1.91996412     6.52383689     1.65315372     0.00692475     0.00388982     0.00945652
O       0.02318317     1.08033545     6.40289140    -0.00430377    -0.00416210     0.01159105
O       1.92474377     2.98192947     1.54922361    -0.00398804    -0.00419347     0.01148872
