# total energy = -78964.87194692 eV

CRYSTAL
PRIMVEC
       10.35150501     0.00002646     0.00000000
        0.00002858    11.01713167     0.00000000
        0.00000000     0.00000000     9.26345890
PRIMCOORD
94 1
Ti      7.18366705     8.68653181     3.27798267     0.02980604    -0.00723277    -0.00948635
Ti      7.08790376     3.32510463     3.46436178     0.02843513    -0.02315716     0.05260685
Ti      1.79553104     8.77143211     3.47484970     0.01930462     0.02136922    -0.03109493
Ti      1.83120428     3.40361852     3.48817482     0.03100932    -0.00279505     0.04131996
Ti      8.36929760     7.68430661     5.74257052    -0.00123053     0.01965121    -0.01012604
Ti      8.53017926     2.19140244     5.82507486     0.04931789     0.01480339     0.02161450
Ti      3.34085398     7.63893614     5.79304385    -0.02532049    -0.00065975     0.03632944
Ti      3.17978234     2.24713992     5.82712122     0.01355949     0.01957407     0.01606529
Ti      9.74564254     7.68424446     1.11059057     0.00115031     0.01961675    -0.00972572
Ti      9.58545384     2.19156530     1.19341969    -0.04871908     0.01489749     0.02203565
Ti      4.42306285     7.63856502     1.16152594     0.02520171    -0.00072531     0.03582345
Ti      4.58354517     2.24730631     1.19533533    -0.01323759     0.01900586     0.01571896
Ti      5.96808094     8.77127440     8.10661094    -0.01952625     0.02163301    -0.03099749
Ti      5.93229213     3.40371433     8.11991975    -0.03107899    -0.00259450     0.04110861
Ti      0.58016202     8.68653975     7.90965249    -0.03073292    -0.00700112    -0.00932694
Ti      0.67586860     3.32531058     8.09631060    -0.02909873    -0.02313814     0.05261610
Ti      7.04481816     6.05146358     1.18238110    -0.03596692    -0.03311119    -0.01274676
Ti      7.02559076     0.53845315     1.20528040    -0.01710273    -0.00662445    -0.03536914
Ti      1.89638437     6.04031355     1.22541409    -0.01533406     0.05575542    -0.02364542
Ti      1.91521314     0.85846664     1.33695675    -0.02018805     0.02882671     0.07102649
Ti      8.47024130    10.49268285     8.07045331     0.02442189     0.01410765     0.01838211
Ti      8.50741761     4.96051350     8.04940917    -0.04961125    -0.01933265     0.02819730
Ti      3.49912453    10.41275353     7.93918939    -0.04624105    -0.00820799    -0.06184174
Ti      3.28782142     4.93737059     8.08599305    -0.01167127     0.01041940    -0.00646633
Ti      5.86726922     6.04011203     5.85694587     0.01493632     0.05622876    -0.02289568
Ti      5.84813319     0.85876484     5.96861757     0.02072824     0.02860430     0.07188884
Ti      0.71903162     6.05156499     5.81415770     0.03555143    -0.03280240    -0.01296351
Ti      0.73820853     0.53838420     5.83723803     0.01744108    -0.00633520    -0.03573269
Ti      9.64512689    10.49255124     3.43883060    -0.02451522     0.01332783     0.01820676
Ti      9.60760284     4.96085828     3.41790420     0.04848151    -0.02043282     0.02823638
Ti      4.26541990    10.41284753     3.30716209     0.04779297    -0.00782258    -0.06190473
Ti      4.47560290     4.93719483     3.45436707     0.01125501     0.01030601    -0.00716618
O       6.76545745     7.47045735     4.71971080    -0.00746366     0.00707954    -0.01249042
O       6.84622181     1.91467071     4.71486219     0.00060832     0.01312137    -0.03082908
O       1.59755631     7.44212663     4.75687944     0.02930673    -0.02044671    -0.00322931
O       1.67440731     1.88087700     4.68449246     0.01974377     0.02182482     0.00629458
O       8.61120958     9.12743899     4.54748227     0.03039302    -0.00986378     0.01752182
O       8.72243233     3.58189217     4.53211902     0.02352997     0.01446837     0.01235081
O       3.49306947     9.10717701     4.55158121    -0.03076172    -0.03604945    -0.00061706
O       3.57056153     3.55436958     4.51678762    -0.02477722    -0.06355718     0.00992009
O       6.16604047     7.44205058     0.12523263    -0.02851869    -0.02068170    -0.00370650
O       6.08901999     1.88092310     0.05282136    -0.01969800     0.02157799     0.00637325
O       0.99806474     7.47039938     0.08791138     0.00763027     0.00719703    -0.01279921
O       0.91735675     1.91449424     0.08308137    -0.00111740     0.01318282    -0.03065399
O       9.50397461     9.12744087     9.17906900    -0.03058534    -0.00978151     0.01780078
O       9.39267711     3.58179125     9.16380769    -0.02390355     0.01467175     0.01250097
O       4.27082543     9.10731329     9.18325574     0.03098206    -0.03633536    -0.00043555
O       4.19289177     3.55447735     9.14859927     0.02496388    -0.06369242     0.01016512
O       8.72562002     6.33616482     0.07157594     0.02228016     0.03755200     0.01920255
O       8.69909007     0.83419842     0.09908450    -0.05485322     0.01089171     0.02222154
O       3.57685453     6.34388972     0.09121660    -0.02767228    -0.00071040    -0.02138464
O       3.27949763     0.62527787     0.07049706    -0.01032941    -0.05287836    -0.03125871
O       6.86557687    10.15761713     9.19213365    -0.02690043    -0.00309561     0.00714638
O       6.80743552     4.67556073     9.20283082    -0.02150343    -0.02696497    -0.03346935
O       1.65066124     4.68845049     9.16202888    -0.00300485     0.02466743     0.00857772
O       9.38939725     6.33621665     4.70338793    -0.02206316     0.03784460     0.01915524
O       9.41604084     0.83422264     4.73082377     0.05500646     0.01070608     0.02197883
O       4.18668468     6.34380823     4.72296118     0.02816876    -0.00096236    -0.02107097
O       4.48410740     0.62524502     4.70226647     0.01057109    -0.05263616    -0.03147777
O       6.11284628     4.68841585     4.53027639     0.00302516     0.02475536     0.00861628
O       0.89816158    10.15761431     4.56039344     0.02714777    -0.00326402     0.00735516
O       0.95610861     4.67560080     4.57108815     0.02142167    -0.02685261    -0.03378971
O       5.41818105     9.00478492     2.69707697    -0.04370800    -0.02216163    -0.04537330
O       5.38503214     3.37277896     2.45409089    -0.01858934     0.01589534    -0.04685837
O       0.15688082     8.85200035     2.50475672    -0.00570579    -0.02339011    -0.00546745
O       0.19780030     3.35265809     2.49987751     0.02351609     0.01609845     0.00097445
O      10.10501785     7.59847338     6.75243441    -0.00875795     0.01060889     0.01262515
O      10.19285773     2.14742038     6.77036900    -0.01116322    -0.02410642    -0.00060498
O       4.96460931     7.65346028     6.78529956    -0.00152698     0.03116435     0.02267714
O       4.94798475     2.19707373     6.77888559    -0.03406944    -0.00540189    -0.00634986
O       8.01012749     7.59837151     2.12073030     0.00922718     0.01109226     0.01289332
O       7.92236985     2.14753821     2.13856896     0.01095779    -0.02452113    -0.00044891
O       2.79902967     7.65347930     2.15351910     0.00170027     0.03120780     0.02280929
O       2.81539039     2.19693775     2.14707088     0.03412189    -0.00498177    -0.00586623
O       7.60679707     8.85202279     7.13655808     0.00617039    -0.02335771    -0.00559601
O       7.56571930     3.35271116     7.13165323    -0.02356880     0.01570276     0.00072325
O       2.34563520     9.00501194     7.32889996     0.04428958    -0.02205365    -0.04535376
O       2.37851872     3.37280558     7.08580536     0.01833866     0.01611979    -0.04718362
O       5.39487133     6.17303944     2.16905315    -0.01988081    -0.00036098    -0.00089552
O       5.30957823     0.58586282     2.08314721     0.02398969    -0.03223625    -0.02438229
O       0.22652589     6.09597698     2.12040111     0.02718454     0.00621693     0.03682001
O       0.15712388     0.58960668     2.12649378     0.00804756    -0.00284673    -0.00667124
O      10.24080573    10.41951508     7.20293848     0.02611033     0.02233184     0.00555616
O      10.14394913     4.90258017     7.12291956     0.00761021     0.00408111    -0.00802544
O       5.10736129    10.39034670     7.06709304    -0.00457785     0.03141118    -0.01002448
O       4.97637294     4.89269142     7.11832711    -0.01927377    -0.02586479     0.01106063
O       7.53700143     6.09597773     6.75219400    -0.02752984     0.00643136     0.03628394
O       7.60656243     0.58977959     6.75811961    -0.00853478    -0.00306064    -0.00627144
O       2.36870242     6.17307889     6.80077096     0.02004716    -0.00009050    -0.00104695
O       2.45413026     0.58587337     6.71482328    -0.02413521    -0.03261188    -0.02460907
O       7.87449466    10.41946702     2.57116699    -0.02646823     0.02236603     0.00564203
O       7.97115953     4.90264906     2.49123559    -0.00804498     0.00357281    -0.00783853
O       2.65680214    10.39045594     2.43564332     0.00414642     0.03082060    -0.01035692
O       2.78712405     4.89263733     2.48653728     0.01963244    -0.02599643     0.01150312
