# total energy = -19071.23283728 eV

CRYSTAL
PRIMVEC
        5.17600016     0.00000000     0.00000000
        0.00000000     5.50899976     0.00000000
        0.00000000     0.00000000     9.26300011
PRIMCOORD
22 1
Ti      1.75206402     3.39663901     3.56849800    -0.56839553     2.07567472    -1.43262513
Ti      3.83063098     2.34788902     6.01577498    -0.01956405     0.18356218     0.02669500
Ti      4.22934302     2.30273502     1.13103102     1.33302132    -1.06369971     1.25822816
Ti      1.34326702     2.66751701     7.65741098    -1.86885665     1.52612024     2.18902030
Ti      1.71148702     0.77179698     1.57135898    -0.89133315     0.25277810    -0.65043303
Ti      3.11610998     5.43919800     7.98162200     0.21465865    -2.35170512     1.08265286
Ti      0.57744901     5.45474999     6.19383101     0.72471172    -0.91336751     0.44018588
Ti      4.36668801     5.14172498     3.36652703     0.40616426     0.12138414     1.61750371
O       3.17188198     3.44657101     4.63738101     0.73279064     0.24749037     1.18064150
O       0.89660100     2.05641301     0.17190699    -0.50929973     0.37134122    -0.27357576
O       0.03857300     3.52229501     6.54386398     0.23802382    -0.53060236    -2.20066766
O       3.31537802     0.62040000     0.46104102    -0.04979869    -0.03722033    -1.81305083
O       1.31179198     4.66638897     7.91699300     0.42750339     1.29440308     1.45762937
O       4.39926702     0.93042701     5.03694100    -1.35869251    -0.71432163    -2.14780550
O       0.85313602     5.14140001     4.39819602     1.88341784    -2.21045277     0.46309467
O       5.12594301     3.55296998     2.72295600    -0.05458351    -0.69373583    -1.45823898
O       4.59322202     0.91577700     7.24654501     0.68428059     0.66376215     2.47660421
O       2.59573199     2.02604199     2.45354302    -0.05755031     1.73921309     0.43656859
O       3.06195102     3.32932200     7.45733800     1.05672456     0.91863827     1.59981554
O       5.03605998     0.91091900     2.27978698     0.62533572     0.32542105    -0.82988787
O       2.26292798     1.16967498     6.93662902    -1.94607745     0.12121676    -2.69163722
O       2.62369298     4.99115400     2.69031401    -1.00248044    -1.32590014    -0.73071782
