# total energy = -19073.01586184 eV

CRYSTAL
PRIMVEC
        7.60600008     0.00000000     0.00000000
        0.00000000     7.60600008     0.00000000
       -1.89786986    -1.89786986     4.85670466
PRIMCOORD
22 1
Ti      3.82930698     6.66761700     1.28543298     1.15350812     0.76781962    -0.30158588
Ti      3.55019201     2.68076401     1.25323498     1.03628197    -0.24413251     0.43300761
Ti      0.10397502     6.86807601     0.95873699    -1.53135321    -2.43821891     1.16920780
Ti     -0.22803602     2.79766900     1.11434500     1.37999848     1.18867568    -0.50707958
Ti      5.73300621     2.83157423     3.63791579    -0.76358964     0.48742606     1.08986327
Ti     -1.30388380    -0.80180778     3.70916183    -0.68356917    -0.38692340    -1.17019330
Ti      1.84781621     2.84255624     3.91435783     0.80678162    -0.23288315    -1.78385980
Ti      1.74738323    -0.96884380     3.58588481     0.03373340     0.04286570     0.57026858
O       3.79293700     4.60751298     0.83920199    -0.19850518     0.90194358     1.41982900
O       4.08955302     0.90252799     0.62392199    -0.92048613    -0.14658276     3.30441129
O      -0.20190298     4.84644698     0.70736298     0.59919710    -0.44283669    -0.24406591
O       7.03714999     0.86629200     0.31353101     0.53207637     0.13268903     3.21326539
O      -1.50934179     4.86818024     4.00704179     0.82840075    -0.91676857    -1.59721873
O       5.21155023     0.88042421     4.10343783     2.25016604     1.84033925    -1.89628802
O       2.07965421     4.77114824     4.32284779    -0.91767642    -1.16225167    -2.54673339
O       2.01386721     0.81438225     4.18928980    -0.47831921     1.28136630    -2.06162544
O       3.71371122     3.06733222     3.28291882    -0.11201529    -0.88187740    -1.20246143
O       0.04541325     2.85756424     3.17611884     0.43272351    -0.51491168     1.03625497
O       5.76496602     6.59178299     2.01720600    -0.34166194     0.59951309    -0.99048701
O       5.77232699     2.69945502     1.68637402    -3.41164227     0.15999827     0.92401831
O       1.91570600     6.66484099     1.54444497     0.39887878     0.51231641     1.03562223
O       1.77392602     2.67068498     1.32978301    -0.09292742    -0.54756624     0.10585004
