# total energy = -19069.12995828 eV

CRYSTAL
PRIMVEC
        5.17600016     0.00000000     0.00000000
        0.00000000     5.50899976     0.00000000
        0.00000000     0.00000000     9.26300011
PRIMCOORD
22 1
Ti      1.87583302     3.37354699     3.17244698    -0.58096103     2.35135930     1.73628281
Ti      3.70520899     2.64679300     6.09979700    -0.81601008    -3.41148158    -0.46791678
Ti      4.42599798     2.26474999     1.60277401    -0.04917468    -0.35982165     0.69550680
Ti      0.79915602     2.53444898     7.93678698     1.37333212     0.39681727    -3.16198858
Ti      1.88059900     0.65901502     1.10941100    -0.26548141    -2.02762927    -1.68494968
Ti      3.45109098     5.36425602     7.56784900    -3.17188784     2.74287392     0.01828801
Ti      0.95321000     5.21408902     6.61378702    -1.44736218    -0.06620567    -3.41283552
Ti      4.25410401     5.08627302     3.59013198     1.38455679     1.16010377     4.52675301
O       3.56969399     3.13187099     4.37248599    -1.06630835     1.62438553    -1.07329661
O       0.51342698     1.93206202     0.33781300     1.34713309     0.12662636    -0.22661300
O       4.65935102     4.02428800     7.53805701     2.99476988    -2.05163875    -0.71340580
O       3.35533498     0.83015401     0.03073901     1.00525697     0.44222425     0.87719927
O       1.53082400     5.37009798     8.24122599    -0.67820122    -1.45257664     5.55123670
O       3.72212699     0.63491401     5.19028800     0.78333906    -2.07249478    -3.45630801
O       0.77362100     5.04413501     4.45121000     0.91448491    -2.34448186     1.53717085
O       0.15225700     3.75579600     2.37736801    -0.28555479    -1.16567330    -0.72597439
O       4.80161900     1.32828501     6.99255601     1.54465405     0.10849057     1.82954832
O       2.58860202     2.05950499     2.04910698    -0.58650999     0.94706800     0.59221295
O       2.48492101     3.46398798     7.21320398    -2.48355416     0.84675097    -0.11692482
O       5.06359598     0.82751198     2.46581602     0.40898502     1.09714695    -0.61399123
O       2.17576597     1.09283601     6.60553101     0.29854633     3.55358342    -0.50300875
O       2.64393703     4.91846801     2.46892102    -0.62405222    -0.44542733    -1.20698580
