# total energy = -19075.35918686 eV

CRYSTAL
PRIMVEC
        7.60600008     0.00000000     0.00000000
        0.00000000     7.60600008     0.00000000
       -1.89786986    -1.89786986     4.85670466
PRIMCOORD
22 1
Ti      3.70255902     6.85163399     1.20985202     0.43572810    -0.84911922    -0.66103704
Ti      3.77077902     2.92544800     1.13532100     0.46444296     0.18477754    -0.03348632
Ti     -0.09201900     6.50356401     1.03359102    -0.03019196    -0.16830062     1.26625798
Ti      0.01261701     2.67131099     1.27583301    -1.23502935     0.32213852    -1.28252278
Ti      5.62654622     2.72126422     3.54010780     0.69386258     0.35487047     0.59786218
Ti     -1.43902980    -0.96488777     3.75160883    -1.10911569    -0.43465235    -0.18556224
Ti      1.95137524     2.95424524     3.66430083    -0.73986632    -0.45260431     0.29838203
Ti      1.65689223    -0.84193275     3.76199082    -0.22923193    -0.50181499    -0.96264375
O       3.77944298     4.76884399     0.76346101     0.06607300     1.24098120    -0.46986619
O       4.21650401     1.01158100     0.84702899    -1.84160577     0.20587371     0.42941295
O      -0.18084802     4.65007899     0.74872098     0.26574495     0.24167222    -0.10126525
O       7.18357302     0.72126002     0.60545799     0.89588580     1.93219760     1.46383139
O       5.79576922     4.68313722     4.04949382     0.89386440    -0.80124140    -1.58723102
O       5.64390122     0.82998023     4.10748281     0.55696132     0.41436171    -0.88464879
O       2.06691421     4.93894023     4.10889481    -0.61904679    -1.41972795    -0.06210296
O       2.13289320     0.94088123     3.98911380    -0.21995590     0.99205821     0.15653190
O       3.77804822     3.03697321     3.13128181     0.38574352    -0.57893243     0.09820821
O       0.09793124     2.61515920     3.17240682    -0.62241905     0.35370756     0.90203408
O       5.51677798     6.65577697     2.02355200     0.41271080    -0.55903800    -0.41794660
O       5.76370902     2.92687302     1.58941102    -1.02678637    -0.24518872     1.15010244
O       1.74611501     6.68347798     1.79716299     0.87734428     0.17431546    -0.12944275
O       1.83417301     2.93569901     1.46870701     1.72488793    -0.40633472     0.41513278
