# total energy = -19069.90310561 eV

CRYSTAL
PRIMVEC
        5.17600016     0.00000000     0.00000000
        0.00000000     5.50899976     0.00000000
        0.00000000     0.00000000     9.26300011
PRIMCOORD
22 1
Ti      1.69993000     3.44999500     3.19415299     0.52953303    -0.88264204     4.32006195
Ti      3.88945898     2.33334401     5.94825498    -1.28331751     0.10989002    -1.03263820
Ti      4.25019398     2.58000501     1.48646699     0.58249881    -1.40251261     0.42239692
Ti      1.25778802     2.40023000     7.81585601    -0.00767603    -0.19436647     1.40373517
Ti      1.51167700     0.68022201     1.49165002     0.87741216     0.52958034    -0.21219425
Ti      3.14681300     0.05628398     7.93308798     0.89383458    -1.78240173     1.59859504
Ti      0.69261200     5.22094900     6.37640901    -1.47237594     0.04265307    -1.10309160
Ti      4.41104201     5.02052302     3.45016698    -0.40856079     1.00476332     2.82831300
O       3.95964900     3.43047000     4.31097099    -1.10806000    -0.89728114     0.61945920
O       0.64921402     2.21885201     0.47007000    -0.13765691    -0.05917987    -1.67554484
O       0.01194401     3.34238802     6.94650701    -1.79426969     1.79301448    -1.54111441
O       3.03890498     1.13947002     0.19970001     0.33344212    -0.04726975    -0.07934299
O       1.33529899     4.99164999     8.05508699    -0.25759121    -0.81851588     4.28384178
O       4.33706498     0.71178002     5.01363397    -0.35256857    -0.42022691    -0.97225068
O       0.97255000     4.57581198     4.65988703     0.91225474    -0.72098285    -0.67464975
O       0.40002101     4.11271801     2.23109199    -3.55252669    -0.29884843    -3.45007591
O       4.66927400     1.10985498     7.24840200     0.90281339    -0.57512797     1.71841260
O       2.59646898     2.05909001     2.47107397     0.21877808    -1.30222798    -0.70774063
O       2.47648799     3.40562597     6.80772901     2.28017289     0.13192258    -0.34193885
O       5.17544601     1.09976098     2.53165800    -0.48335035     0.65134989    -0.41957977
O       2.18645901     1.02498199     6.76380698    -0.23210591     1.99333434    -3.28905974
O       2.50339898     4.87019498     2.61555000     3.55931955     3.14507560    -1.69559431
