# total energy = -19518.74906553 eV

CRYSTAL
PRIMVEC
        7.60600008     0.00000000     0.00000000
        0.00000000     7.60600008     0.00000000
       -1.89786986    -1.89786986     4.85670466
PRIMCOORD
23 1
Ti      3.79115600     6.71405400     1.21217701     1.01001609    -1.10863001    -1.21086354
Ti      3.74490400     2.79922001     1.12983100    -0.34599837     1.88477333     1.07900241
Ti      0.07999398     6.64629698     1.23968502    -1.34846852    -0.79241814    -0.02955484
Ti      0.06268200     2.79494903     1.14317198    -0.47348374     1.23302646    -0.82423350
Ti      5.55746922     2.89904523     3.60502679    -0.08079258    -0.75586013     1.75975519
Ti      5.66175323    -1.00968078     3.61110682     1.23306734     0.46773577    -0.60264109
Ti      1.98310021     2.87473525     3.70843279    -0.49036818     0.28745458     1.23547441
Ti      1.96706720    -0.91882379     3.59443679    -1.99713752    -0.40745418     0.40030934
O       3.71690301     4.74309099     0.86965301    -0.02087377     0.01327538    -0.10271767
O       3.98957498     1.02406101     0.84359299     0.00632954    -1.03100992    -0.70496795
O       0.14389801     4.65006100     0.72216502     0.31639776     2.10812077     0.86423834
O      -0.13687598     1.00071699     0.80434302     0.19416593    -1.62785986    -0.44759169
O       5.60404222     4.73406921     4.03844883     0.51104422     0.65015690     0.57799603
O       5.81758323     0.99567621     4.03562282    -0.14361185    -1.45220357    -0.64364840
O       1.83421423     4.71907624     4.04205983    -0.09814033     1.07206094     0.34918731
O       1.62026724     0.98932021     4.03520879     0.33073038    -0.74001724     0.54876386
O       3.75872823     2.85549823     3.42096682     0.41049786    -0.40856567    -0.73118216
O       3.72958924    -1.04310478     3.15103383     1.21148498     0.45043456     0.68068053
O       0.00917122    -1.12469877     3.19413780     0.30080247     0.44224199    -0.09019228
O       5.74708999     6.52286300     1.63841997    -0.64555822     0.42637519     0.06970983
O       5.80872602     2.92821702     1.82777399     0.47824105    -0.03484695    -1.63666255
O       1.93645302     6.91689600     1.53932402    -0.49832677    -0.31631754     0.60818876
O       1.83218399     2.79230298     1.83892100     0.13998196    -0.36047240    -1.14905034
