# total energy = -19961.08643760 eV

CRYSTAL
PRIMVEC
        7.60600008     0.00000000     0.00000000
        0.00000000     7.60600008     0.00000000
       -1.89786986    -1.89786986     4.85670466
PRIMCOORD
24 1
Ti      3.76160901     6.58718100     1.27830898    -1.09686567     1.10146306    -0.07616587
Ti      3.75460599     2.94248200     1.21045200     0.73066177    -1.18484474     0.79146401
Ti     -0.03116298     6.64814201     1.20107302     1.05963248    -1.43083975    -0.20429248
Ti      0.02505300     2.80996898     1.19475899     0.21252772     1.29891691    -0.81209403
Ti      5.76895824     2.86588121     3.56906279    -1.51517762    -0.22466488     0.64860189
Ti      5.76047723    -0.98556675     3.62429784    -0.32428513     0.09589138    -0.16950955
Ti      1.82018823     2.89244422     3.66169284     1.94023307     0.44592381    -0.34047049
Ti      1.85318524    -0.93359176     3.69953880     0.51711434    -0.30264492     0.17847165
O       3.66626001     4.80364300     0.87570098     0.45159850     0.03617543    -1.21535757
O       3.65431901     1.08231702     0.82296799     0.75843895    -1.81188767     0.02071230
O       0.13277698     4.68736101     0.69253099    -0.43427337    -0.37592396     0.73496579
O       0.14319700     0.85921102     0.71606001    -0.61305149     1.28246133     0.34944236
O       5.95992921     4.65457324     4.10556280    -0.56531098     1.51267722    -0.43953719
O       5.79792922     0.94701624     3.93040682    -0.48088106    -1.29167540     0.54193733
O       1.66184025     4.78130521     4.01220482     0.59962442    -0.38048150     1.41344520
O       1.89500125     0.99654924     4.03863479     0.23076071     0.44291485     0.11545774
O       3.80050121     3.02700521     3.26249581     0.49822624    -0.35373559    -0.34815475
O       3.75989522    -1.19809778     3.26479979     1.01219972     0.80669034    -0.09550906
O       0.04251421     2.84781822     3.19658281    -0.03686783    -0.51675799    -0.96456025
O       0.01778221    -0.95720375     3.19409282    -1.60947492     0.32585942    -0.07905682
O       5.65362798     6.56696500     1.57202098     0.60534281     0.31021348     0.35274109
O       5.79453402     3.00381698     1.59745298    -0.28441065    -0.62225888    -0.30552199
O       1.84183597     6.50393898     1.73949098     0.55006176     0.82221056    -0.68339047
O       1.99073597     2.86531198     1.61066902    -2.20582375     0.01431771     0.58638117
