# total energy = -19516.93282049 eV

CRYSTAL
PRIMVEC
        5.93400000     0.00000000     0.00000000
        0.00000000     9.29699974     0.00000000
        0.00000000     0.00000000     4.64899994
PRIMCOORD
23 1
Ti      4.53694899     6.84982400     2.25132100     0.23808064     0.31413930     0.76744578
Ti      4.45546501     2.26045503     2.38383799    -1.09963732    -0.32773607     0.09986605
Ti      1.57175698     7.09515898     2.30881701    -0.44418240    -0.02714417    -0.65121568
Ti      1.36326902     2.43697099     2.29141100     1.11462480    -0.80661398     0.17419616
Ti      2.91339398     4.52819000     0.09236900     0.60034793    -0.78478582     0.73012981
Ti      2.97782998     9.27255901     4.47563100     1.02436567     1.03069239     0.83810255
Ti      5.93322502     4.68090499     0.01882903     0.53678612    -0.01437273    -0.64867826
Ti      0.05064401     0.04182299     0.12216300    -1.01340660     0.87844549     0.34422199
O       4.53119398     5.65650601     0.70217598    -2.14586072     0.40954526     1.39051250
O       4.46166300     0.97316802     0.94283601    -0.04243402    -0.68658893    -0.57759365
O       1.51807898     5.49513802     1.00983598     0.86113219     0.50972679    -0.52290473
O       1.48257399     0.91376602     0.92382399    -0.80132059     0.01095856     0.36254316
O       4.37740501     8.35861999     3.68793198     0.46176259    -0.10145525    -0.18651766
O       4.51519700     3.86423500     3.77826799    -1.47327120    -1.19678083    -0.98847717
O       1.44100400     8.55827899     3.77880997    -0.14170358    -2.50920967    -1.90147907
O       1.41747202     3.57050099     3.85834701     0.70318669     1.65179170     0.02887273
O       2.74547000     1.54896002     3.28972002     2.08605093    -1.18146142     0.18487421
O       0.11807998     6.00104099     3.15431599    -0.05891531     0.22739770     0.54371859
O       5.91598803     1.37750998     3.17171799    -0.27716862    -0.09111762     0.73828766
O       3.02798800     7.89133801     1.30544498    -0.92300709    -0.93875048     1.34206673
O       2.98522201     3.18669598     1.46766601    -0.35960182     1.20859274    -0.87450733
O       5.87855498     7.69419599     1.40788899     1.14447995     2.36540987    -1.30694082
O       5.81114399     3.28749102     1.46489402     0.00969178     0.05931666     0.11347697
