# total energy = -19920.75789427 eV

CRYSTAL
PRIMVEC
        6.34029682     0.00000000     0.00000000
        0.00003475     6.74799315     0.00000000
        0.00000000     0.00000000    11.34773716
PRIMCOORD
24 1
Ti      2.29807324     3.99885450     4.20992963     0.04991284    -0.90396755     0.63290350
Ti      4.04225833     2.74913872     7.13780785    -0.04991284     0.90396755    -0.63290350
Ti      5.46811065     2.74914104     1.46389377     0.05057105     0.90432777    -0.63280863
Ti      0.87222092     3.99885244     9.88384384    -0.05057105    -0.90432777     0.63280863
Ti      2.29805599     0.62485805     1.46393927     0.04991284    -0.90396755    -0.63290350
Ti      4.04227557     6.12313535     9.88379834    -0.04991284     0.90396755     0.63290350
Ti      0.87220367     0.62485554     7.13776234    -0.05057105    -0.90432777    -0.63280863
Ti      5.46812790     6.12313787     4.20997514     0.05057105     0.90432777     0.63280863
O       2.00675621     2.37608317     5.79066353     1.41283097     1.30508139     0.01124627
O       4.33357536     4.37191011     5.55707395    -1.41283097    -1.30508139    -0.01124627
O       1.16345374     2.37611034     0.11683132    -1.41188403     1.30466745     0.01072073
O       5.17687789     4.37188294    11.23090584     1.41188403    -1.30466745    -0.01072073
O       4.33355811     0.99791347     0.11679450    -1.41283097    -1.30508139     0.01124627
O       2.00677346     5.75007974    11.23094266     1.41283097     1.30508139    -0.01124627
O       5.17686065     0.99788630     5.79070035     1.41188403    -1.30466745     0.01072073
O       1.16347086     5.75010698     5.55703713    -1.41188403     1.30466745    -0.01072073
O       0.23037876     4.10451197     3.06530698     0.49825581    -0.28853008     0.33286722
O       6.10995281     2.64348124     8.28243050    -0.49825581     0.28853008    -0.33286722
O       3.40053225     2.64341835     2.60859784     0.49788686     0.28859770    -0.33261397
O       2.93979932     4.10457486     8.73913945    -0.49788686    -0.28859770     0.33261397
O       0.23036152     0.73051533     2.60856160     0.49825581    -0.28853008    -0.33286722
O       6.10997005     6.01747788     8.73917569    -0.49825581     0.28853008     0.33286722
O       2.93978207     0.73057822     8.28246667    -0.49788686    -0.28859770    -0.33261397
O       3.40054950     6.01741499     3.06527074     0.49788686     0.28859770     0.33261397
