# total energy = -19961.42721340 eV

CRYSTAL
PRIMVEC
        7.60600008     0.00000000     0.00000000
        0.00000000     7.60600008     0.00000000
       -1.89786986    -1.89786986     4.85670466
PRIMCOORD
24 1
Ti      3.72311698     6.68061603     1.26643599     1.54943707     0.39725873    -0.07395524
Ti      3.81379901     2.95703602     1.23675502    -0.30883897    -0.25480233    -0.09308014
Ti      0.06988003     6.61231999     1.18083601    -1.33533635     0.46017621     0.41481808
Ti      0.01152299     2.86039698     1.23752100    -0.00272691    -0.66477671    -1.84722312
Ti      5.76701024     2.81101421     3.62992082    -1.20558198    -1.12822800     0.39898471
Ti      5.73886923    -1.06325775     3.63255882    -0.36606223     1.14459847    -1.05333533
Ti      1.84522022     2.90556120     3.60064383     0.80939335     0.40208957     0.65075262
Ti      1.86626724    -0.90963680     3.67544779     0.20540062    -0.63643903     0.65968155
O       3.76969199     4.86235098     0.67956598     0.25122618    -1.84015696     0.99973450
O       3.64543900     0.94780397     0.82950799     0.49312928     0.80883516     0.04765310
O       0.09850502     4.74166698     0.73003002    -0.67355446    -0.77078025     0.47481428
O       0.06729801     0.90226700     0.68941000    -0.05225718     0.18907000     1.33195046
O       5.84780825     4.67359224     4.05009481    -0.15229344     0.20853583    -0.31211944
O       5.68631621     0.84418721     3.96348680    -0.34878210     1.37526816     0.83476397
O       1.77090125     4.77200021     4.13025579     0.00604364     0.30205768    -1.13946629
O       1.85511621     0.99104125     4.16375779     0.45503555    -0.38742348    -0.91528195
O       3.71488425     2.87116822     3.19509482     0.33279395     0.01698214    -0.15654425
O       3.79328123    -1.12132479     3.21818081    -0.38339456     0.35400170     0.49129789
O      -0.03937777     2.68775221     3.23277081     1.26302944     0.10830673    -0.58943307
O       0.03305421    -0.91698078     3.15362981     0.13415044    -0.08631325     0.41665334
O       5.71913801     6.67540601     1.66253299     0.11217573    -0.27605456    -0.64351933
O       5.74084999     2.99327900     1.71205298    -1.04484195    -0.11040758    -1.13292283
O       1.90390899     6.50141200     1.67207501    -0.33946262     0.49756984     0.05916239
O       1.83855502     2.96480000     1.48659500     0.60131697    -0.10936834     1.17661412
