# total energy = -19957.65137599 eV

CRYSTAL
PRIMVEC
        5.86412737     0.00000000     0.00000000
        0.00002727     5.10644053     0.00000000
        0.00000000     0.00000000     9.63773996
PRIMCOORD
24 1
Ti      2.12548027     3.02607182     3.57553291     0.03107668     0.25010570    -0.55912901
Ti      3.73867442     2.08036849     6.06220743    -0.03107668    -0.25010570     0.55912901
Ti      5.05744235     2.08037014     1.24329875     0.03303766    -0.24999437     0.56287331
Ti      0.80671234     3.02607034     8.39444169    -0.03303766     0.24999437    -0.56287331
Ti      2.12546686     0.47285167     1.24333740     0.03142558     0.24324882     0.56192637
Ti      3.73868784     4.63358881     8.39440305    -0.03142558    -0.24324882    -0.56192637
Ti      0.80669892     0.47284980     6.06216879    -0.03311634     0.24385894     0.55971394
Ti      5.05745577     4.63359062     3.57557155     0.03311634    -0.24385894    -0.55971394
O       1.85604295     1.79806444     4.91806508     0.71966798     0.12904397     0.23169710
O       4.00811174     3.30837587     4.71967526    -0.71966798    -0.12904397    -0.23169710
O       1.07607420     1.79808508     0.09922595    -0.71958854     0.12939416     0.23075942
O       4.78808054     3.30835529     9.53851412     0.71958854    -0.12939416    -0.23075942
O       4.00809832     0.75515555     0.09919466    -0.71910568    -0.12912830     0.23147933
O       1.85605637     4.35128476     9.53854540     0.71910568     0.12912830    -0.23147933
O       4.78806707     0.75513497     4.91809636     0.71976697    -0.12980116     0.23078642
O       1.07608751     4.35130540     4.71964398    -0.71976697     0.12980116    -0.23078642
O       0.21307379     3.10602662     2.60339410    -0.01756501    -0.14328635     0.27629496
O       5.65108090     2.00041369     7.03434624     0.01756501     0.14328635    -0.27629496
O       3.14514334     2.00036623     2.21550673    -0.01651549     0.14274307    -0.27594632
O       2.71901135     3.10607408     7.42223344     0.01651549    -0.14274307     0.27594632
O       0.21306032     0.55280630     2.21547593    -0.01708653    -0.14289502    -0.27580594
O       5.65109437     4.55363401     7.42226424     0.01708653     0.14289502     0.27580594
O       2.71899788     0.55285376     7.03437698     0.01740715    -0.14358819    -0.27710486
O       3.14515682     4.55358655     2.60336330    -0.01740715     0.14358819     0.27710486
