# total energy = -19959.89820614 eV

CRYSTAL
PRIMVEC
        7.60600008     0.00000000     0.00000000
        0.00000000     7.60600008     0.00000000
       -1.89786986    -1.89786986     4.85670466
PRIMCOORD
24 1
Ti      3.85844702     6.73451400     1.23107801     0.19702936     1.21830483     0.40795323
Ti      3.90381699     2.95531698     1.19690998    -0.74822832    -0.96960501     0.33661178
Ti      0.09677398     6.52073602     1.16427599    -1.16762271     1.79097276     0.93303800
Ti      0.05711500     2.82070599     1.33005601     0.33492771    -1.85534164    -2.24764456
Ti      5.73896421     2.59227922     3.64850479    -1.19140620     0.56479470    -0.47096508
Ti      5.65647522    -1.04571478     3.68386383    -0.19006861    -0.96599647    -0.50841141
Ti      1.91645822     2.91874422     3.59297679     1.07928317     1.12783616     0.18096099
Ti      1.84318723    -0.72684480     3.63590179    -0.04504394    -1.49924603     0.10121383
O       3.69586398     4.86047902     0.83855300     0.00244923    -0.10407521    -1.10070227
O       3.65516797     1.04415699     0.89030802     1.12714402     0.56949982    -1.18208646
O      -0.01185198     4.62613298     0.76636201     0.52544446    -0.57312688     0.31482064
O      -0.21288901     0.82220899     0.75771599     0.78691315     0.06704154     0.09043602
O       5.54330521     4.55548623     4.09468979     0.83816374     0.31008056    -0.58548720
O       5.53717924     0.75762423     4.02520183     0.94679829     3.10074719     0.60728682
O       1.95831424     5.04582721     3.90596582    -0.25836691    -2.78130807     1.02117853
O       1.82257720     1.13135625     3.98531081     0.59518618    -0.22152993     1.47281020
O       3.73796823     2.79516525     3.16626180     1.34333479     0.29497583     0.25929765
O       3.78336323    -0.68273978     3.21162483    -0.36563363    -0.83375893    -0.57098540
O       0.03558521     2.62235321     3.15179484    -0.61428794     0.86371820     1.26143022
O      -0.04976976    -0.81391176     3.17169783    -0.51480832    -0.59711296     0.48345088
O       5.64430800     6.46286001     1.68954802     0.16649725     0.02445223    -0.69389986
O       5.77917401     2.69096601     1.60640798    -1.30682357     0.72184674     0.57750984
O       1.82899401    -0.65360100     1.71115301     0.39666789    -1.09254750    -1.35977263
O       1.99332598     2.77230902     1.52628901    -1.93754884     0.83937833     0.67195626
