# total energy = -19072.66942512 eV

CRYSTAL
PRIMVEC
        5.17600016     0.00000000     0.00000000
        0.00000000     5.50899976     0.00000000
        0.00000000     0.00000000     9.26300011
PRIMCOORD
22 1
Ti      1.94537400     3.57855200     3.33140299     0.94401893    -0.96319474    -0.24442844
Ti      3.54628700     2.07171697     5.91924998    -0.61732955     0.97901834    -2.83315439
Ti      4.49900502     2.27078700     1.38094402     0.09539259     0.11397267    -1.29453961
Ti      0.49893699     2.95230501     8.04515899     1.49828393     2.26884640    -1.40068559
Ti      1.85396101     0.55655900     1.36995999     0.00131435     1.52949122    -2.13696624
Ti      3.19280798     5.11047600     8.21676398    -0.69286191     1.29546186     0.15733640
Ti      0.80937899     0.04564900     5.96579302    -0.74150771    -0.15847283    -0.59485450
Ti      4.48166097     5.06175201     3.29280401     0.13626106    -2.07681938     2.10309940
O       3.63327200     3.23274202     4.20176500    -0.40042813     0.45858599     2.14825005
O       0.88963898     1.80993902     0.08976799    -0.13595896     0.42875989     0.68432764
O       4.30537499     3.81106899     8.90904599    -0.35434031    -1.13677512     0.87015676
O       3.48901299     0.87173199     0.35928701     0.31296893    -0.30339466    -3.04441790
O       1.73744698     4.79814898     9.18382402    -0.89374562    -1.06124045    -0.14315599
O       4.40989798     0.72214798     4.79130200    -0.90783295     0.15432178     0.54529262
O       1.20794899     5.08968601     4.11831999    -0.47973383    -0.44173960     2.15841388
O       0.33353000     3.66042202     2.20555400    -0.24168173    -1.14458896     0.73335834
O       4.90821700     1.59906400     7.01925301     0.43513289    -1.10722722     0.36028162
O       2.80139499     2.18892598     2.08572202    -1.46478655     0.17932268     0.94488025
O       1.65824899     4.06007001     6.73169798    -0.03428773    -1.45909516     0.54193527
O       0.01356800     0.59801501     2.04135998     0.86773710     2.09227943    -0.13394398
O       2.18806400     1.02517302     6.73120098     1.52759528     0.85505693     0.52386555
O       2.83261703     4.90601001     2.37755899     1.14578967    -0.50256909     0.05494887
