# total energy = -4982.92675773 eV

CRYSTAL
PRIMVEC
        4.24254218     0.00000000     0.00000000
        0.00000000     3.57938408     0.00000000
        0.00000000    -0.00008085     5.61912694
PRIMCOORD
6 1
Ti      2.12127097     1.78965155     2.80956365     0.00000000     0.00000000     0.00000000
Ti      0.00000000     0.00000000     0.00000000     0.00000000     0.00000000     0.00000000
O       2.12127097     0.69755347     1.09508513     0.00000000     0.39533271     1.93407450
O       2.12127097     2.88174969     4.52404210     0.00000000    -0.39533271    -1.93407450
O       0.00000000     1.09206587     3.90464986     0.00000000    -0.39532423     1.93410330
O       0.00000000     2.48723724     1.71447744     0.00000000     0.39532423    -1.93410330
