# total energy = -19518.17716089 eV

CRYSTAL
PRIMVEC
        7.60600008     0.00000000     0.00000000
        0.00000000     7.60600008     0.00000000
       -1.89786986    -1.89786986     4.85670466
PRIMCOORD
23 1
Ti      3.78001502     6.60164601     1.20879001     0.57135436     0.42211745    -1.48470695
Ti      3.87759202     2.79854002     1.21275001    -0.55398860    -0.59644679     0.82138240
Ti      0.08738600     6.85667197     1.19107300    -0.85731076    -0.53470250     1.13372579
Ti     -0.09700798     2.94646300     1.09423700     1.47112844    -0.77975957     0.66146976
Ti      5.59562523     2.93092324     3.80815582     0.76736968    -0.30155143    -2.25042444
Ti      5.70161123    -0.99973680     3.55986183     0.18521540     0.77328836    -0.09305726
Ti      2.09670023     2.70753021     3.70875781    -0.89688622     1.26220463    -0.95589666
Ti      1.90251022    -1.00718777     3.60518083    -0.63920502    -1.23447425     0.91111317
O       4.03049599     4.67205800     0.80902401    -0.68353754    -0.08559308     0.03892652
O       4.02429302     0.90750099     0.67262000    -0.29353910    -0.35267347     0.71803353
O      -0.08894200     4.94084400     0.74465098     0.61739486    -1.23290742     2.36737420
O      -0.26220002     0.97118699     0.82766698     0.67160428     0.66818651    -0.80045027
O       5.58330625     4.78890324     3.97326679     1.06144691     1.11758671     0.36125813
O       5.65987920     1.02933521     4.11387183     0.27155513    -0.85323607    -0.76188963
O       1.52153721     4.60565821     3.98322882     0.70058062    -0.17925635     0.46829216
O       1.85307924     0.86430224     4.02588479     0.11093312     1.11189377     0.49849518
O       3.87417623     2.75858121     3.33423282    -1.54100591     0.18325750    -1.11269544
O       3.70929624     6.35267324     3.05948383     0.71794329     0.28688225     1.65315541
O       0.01711121    -0.82349680     3.25115284    -1.11651893    -0.42497266    -0.52218816
O       5.64383899     6.67832501     1.69394601     0.88188408     0.09056046    -0.36082824
O       5.78149800     2.79437201     1.72525902     0.15363401     0.49328844     0.02797670
O       1.94166701     6.93553500     1.68791699    -1.27012338    -0.16977669    -1.57931767
O       1.83437600     2.72938502     1.66582998    -0.32992845     0.33608393     0.26025230
