# total energy = -4987.14805930 eV

CRYSTAL
PRIMVEC
        4.05299442     0.00000000     0.00000000
        1.55883680     3.74122862     0.00000000
       -2.80595324    -1.87063940     5.28341461
PRIMCOORD
6 1
Ti      1.16901804     2.80606550     1.32085338    -0.00020929     0.00020929     0.00000000
Ti      1.63686007    -0.93547624     3.96256052     0.00020929    -0.00020929     0.00000000
O       0.38975134     0.93530226     0.86062494    -0.00058750    -0.00079961    -1.75168989
O       2.41612658     0.93528693     4.42278901     0.00058750     0.00079961     1.75168989
O      -0.38971633    -0.93527892     3.50233213    -0.00079961    -0.00058750    -1.75168989
O       3.19559419     2.80586806     1.78108187     0.00079961     0.00058750     1.75168989
