# total energy = -19073.01932068 eV

CRYSTAL
PRIMVEC
        5.17600016     0.00000000     0.00000000
        0.00000000     5.50899976     0.00000000
        0.00000000     0.00000000     9.26300011
PRIMCOORD
22 1
Ti      1.74151302     3.42471700     3.32446998     0.60336820     1.37074508     1.07640379
Ti      3.70581701     2.43789001     6.10403598     0.19203937     0.10879293    -1.32676506
Ti      4.33886001     2.20869800     1.44954598     2.24290756    -1.21179505    -0.85909947
Ti      1.20641300     2.80556998     7.83062498     0.47179349     0.25399192     0.79983681
Ti      1.83436500     0.54770999     1.58356001    -1.16228690     1.00545058    -1.77966633
Ti      3.09088003     0.00741700     7.72094400    -0.21810728     0.01590896     0.88777114
Ti      0.54998900     5.50879402     6.25667102    -0.96562777    -0.53681851    -0.14473439
Ti      4.37047300     5.00982702     3.60687499    -0.36483582    -0.14636447     1.68733130
O       3.51272902     3.64991197     4.60721002    -1.28143855    -0.74744233     0.19251014
O       0.81180198     2.15318402     0.32081598    -0.92221314    -0.04344317    -0.48754742
O       0.24237900     3.44265801     6.45072502    -1.33167252     0.27309162    -1.10037394
O       3.16282802     0.79350102     0.12729301     0.17685648    -0.03796852     0.41450106
O       1.24911200     4.96494400     7.94197901     0.15473779    -1.14118019     1.27804572
O       4.32413401     0.87046303     5.05793701    -1.23022370    -0.52112758    -2.10932096
O       0.93030398     4.93216502     4.51894299     1.44509061    -1.46741011    -1.58033763
O       0.08556500     3.57651800     2.48401098    -0.59104901    -1.28527489    -0.11331884
O       4.57301200     1.19404999     7.21343899     0.45028466    -0.06149978     2.66747887
O       2.66147100     2.04449202     2.33324600    -0.37549356    -0.60539577     1.41652642
O       3.05640201     3.31488901     7.62814700    -0.01954785     1.79635305     1.09864847
O       5.11588203     0.55857199     2.33823800     0.94741176     2.81180471    -2.55267907
O       1.90395001     1.41698602     6.60385400     1.51224168    -0.40888192    -0.25904311
O       2.74606099     4.55479697     2.15875197     0.26576398     0.57846397     0.79383302
