# total energy = -19914.42649615 eV

CRYSTAL
PRIMVEC
        6.46356994     0.00000000     0.00000000
        2.01837740     6.57643124     0.00000000
        0.00000000     0.00000000    11.70370539
PRIMCOORD
24 1
Ti      3.53882177     3.89718709     4.34199123    -0.24342185    -1.97923415     0.66660271
Ti      4.94312546     2.67924429     7.36171423     0.24342185     1.97923415    -0.66660271
Ti      6.39670102     2.67924656     1.50981474     0.03061799    -0.69018282    -0.11504920
Ti      2.08524632     3.89718508    10.19389084    -0.03061799     0.69018282     0.11504920
Ti      2.52963322     0.60897158     1.50986167    -0.24342185    -1.97923415    -0.66660271
Ti      5.95231404     5.96746000    10.19384392     0.24342185     1.97923415     0.66660271
Ti      1.07605763     0.60896913     7.36166731    -0.03061799     0.69018282    -0.11504920
Ti      7.40588963     5.96746245     4.34203815     0.03061799    -0.69018282     0.11504920
O       2.75646566     2.31567328     5.97231128     1.82568293     2.05602171    -0.67639656
O       5.72548159     4.26075817     5.73139418    -1.82568293    -2.05602171     0.67639656
O       1.89677519     2.31569981     0.12049623    -0.61454042    -0.15031523     1.15749436
O       6.58517213     4.26073169    11.58320890     0.61454042     0.15031523    -1.15749436
O       4.71629301     0.97254247     0.12045826    -1.82568293    -2.05602171    -0.67639656
O       3.76565424     5.60388899    11.58324687     1.82568293     2.05602171     0.67639656
O       5.57598354     0.97251599     5.97234925     0.61454042     0.15031523     1.15749436
O       2.90596365     5.60391554     5.73135620    -0.61454042    -0.15031523    -1.15749436
O       1.46252800     4.00015833     3.16146281     0.54821133     1.98372612     2.00477061
O       7.01941924     2.57627312     8.54224265    -0.54821133    -1.98372612    -2.00477061
O       4.25730125     2.57621180     2.69042714     0.65441670     1.82991651     1.08052167
O       4.22464599     4.00021965     9.01327812    -0.65441670    -1.82991651    -1.08052167
O       0.45333936     0.71194264     2.69038975     0.54821133     1.98372612    -2.00477061
O       8.02860782     5.86448883     9.01331550    -0.54821133    -1.98372612     2.00477061
O       3.21545741     0.71200395     8.54227996    -0.65441670    -1.82991651     1.08052167
O       5.26648983     5.86442750     3.16142543     0.65441670     1.82991651    -1.08052167
