# total energy = -19941.22004249 eV

CRYSTAL
PRIMVEC
        6.59908471     0.00000000     0.00000000
        0.00002490     4.21405286     0.00000000
        0.00000000     0.00000000    10.07864350
PRIMCOORD
24 1
Ti      2.39186538     2.49724381     3.73910487     0.15160361     1.15375006    -0.50661113
Ti      4.20724381     1.71680900     6.33953874    -0.15160361    -1.15375006     0.50661113
Ti      5.69129420     1.71681042     1.30017667     0.15220834    -1.15376395     0.50721122
Ti      0.90781504     2.49724255     8.77846700    -0.15220834     1.15376395    -0.50721122
Ti      2.39185314     0.39021743     1.30021709     0.15160361     1.15375006     0.50661113
Ti      4.20725604     3.82383549     8.77842662    -0.15160361    -1.15375006    -0.50661113
Ti      0.90780275     0.39021590     6.33949831    -0.15220834     1.15376395     0.50721122
Ti      5.69130643     3.82383702     3.73914525     0.15220834    -1.15376395    -0.50721122
O       2.08866062     1.48383961     5.14305465     1.77376796    -0.44243508     0.84396364
O       4.51044861     2.73021315     4.93558896    -1.77376796     0.44243508    -0.84396364
O       1.21093762     1.48385662     0.10376529    -1.77356844    -0.44314265     0.84385103
O       5.38817167     2.73019619     9.97487800     1.77356844     0.44314265    -0.84385103
O       4.51043638     0.62318666     0.10373258    -1.77376796     0.44243508     0.84396364
O       2.08867286     3.59086609     9.97491071     1.77376796    -0.44243508    -0.84396364
O       5.38815938     0.62316970     5.14308731     1.77356844     0.44314265     0.84385103
O       1.21094975     3.59088311     4.93555625    -1.77356844    -0.44314265    -0.84385103
O       0.23977507     2.56322584     2.72249305    -0.36578430     0.30246597     1.40286434
O       6.35933417     1.65082692     7.35615051     0.36578430    -0.30246597    -1.40286434
O       3.53932502     1.65078774     2.31686076    -0.36543977    -0.30224383    -1.40308494
O       3.05978416     2.56326507     7.76178263     0.36543977     0.30224383     1.40308494
O       0.23976278     0.45619935     2.31682859    -0.36578430     0.30246597    -1.40286434
O       6.35934640     3.75785340     7.76181480     0.36578430    -0.30246597     1.40286434
O       3.05977193     0.45623858     7.35618262     0.36543977     0.30224383    -1.40308494
O       3.53933725     3.75781417     2.72246088    -0.36543977    -0.30224383     1.40308494
