# total energy = -4988.46417983 eV

CRYSTAL
PRIMVEC
        4.41355361     0.00000000     0.00000000
       -0.00000822     3.61108912     0.00000000
       -2.20680625    -1.80558582     5.17233756
PRIMCOORD
6 1
Ti     -0.00019156     2.70845142     1.29308453    -0.00300588    -0.00221398     3.59286809
Ti      2.20693069    -0.90294835     3.87925320     0.00300588     0.00221398    -3.59286809
O       0.00004553     0.90276468     0.84253159     0.00015658     0.00085618    -0.76005540
O       2.20669350     0.90273828     4.32980620    -0.00015658    -0.00085618     0.76005540
O      -0.00002135    -0.90275646     3.42870026    -0.00212193    -0.00021520    -1.43127273
O       2.20676026     2.70825942     1.74363748     0.00212193     0.00021520     1.43127273
