# total energy = -19902.37544026 eV

CRYSTAL
PRIMVEC
        7.91890147     0.00000000     0.00000000
        0.00003116     5.61873715     0.00000000
        0.00000000     0.00000000    12.30303161
PRIMCOORD
24 1
Ti      2.87023950     3.32965841     4.56433697     0.55008490    -0.71247943     1.62749502
Ti      5.04869327     2.28907874     7.73869477    -0.55008490     0.71247943    -1.62749502
Ti      6.82955372     2.28908070     1.58712971     0.54966375     0.71219404    -1.62802493
Ti      1.08937905     3.32965672    10.71590210    -0.54966375    -0.71219404     1.62802493
Ti      2.87022392     0.52028997     1.58717903     0.55008490    -0.71247943    -1.62749502
Ti      5.04870885     5.09844738    10.71585278    -0.55008490     0.71247943     1.62749502
Ti      1.08936346     0.52028788     7.73864538    -0.54966375    -0.71219404    -1.62802493
Ti      6.82956930     5.09844948     4.56438630     0.54966375     0.71219404     1.62802493
O       2.50639335     1.97845289     6.27814288     0.68589164     1.50985827    -1.64995002
O       5.41253942     3.64028433     6.02488887    -0.68589164    -1.50985827     1.64995002
O       1.45312579     1.97847554     0.12666661    -0.68552475     1.51090548    -1.65157855
O       6.46580711     3.64026168    12.17636473     0.68552475    -1.51090548     1.65157855
O       5.41252390     0.83091568     0.12662667    -0.68589164    -1.50985827    -1.64995002
O       2.50640887     4.78782147    12.17640467     0.68589164     1.50985827     1.64995002
O       6.46579153     0.83089311     6.27818275     0.68552475    -1.51090548    -1.65157855
O       1.45314117     4.78784418     6.02484892    -0.68552475     1.51090548     1.65157855
O       0.28773112     3.41763444     3.32335579    -1.87517205     0.54122847     0.11609152
O       7.63120165     2.20110278     8.97967595     1.87517205    -0.54122847    -0.11609152
O       4.24719071     2.20105038     2.82819921    -1.87612876    -0.54128324    -0.11616506
O       3.67174206     3.41768684     9.47483233     1.87612876     0.54128324     0.11616506
O       0.28771554     0.60826580     2.82815988    -1.87517205     0.54122847    -0.11609152
O       7.63121723     5.01047135     9.47487160     1.87517205    -0.54122847     0.11609152
O       3.67172654     0.60831819     8.97971515     1.87612876     0.54128324    -0.11616506
O       4.24720622     5.01041903     3.32331653    -1.87612876    -0.54128324     0.11616506
