# total energy = -19519.32076811 eV

CRYSTAL
PRIMVEC
        7.60600008     0.00000000     0.00000000
        0.00000000     7.60600008     0.00000000
       -1.89786986    -1.89786986     4.85670466
PRIMCOORD
23 1
Ti      3.81335302     6.67131198     1.21188099     0.31226728     0.70121903     0.14634802
Ti      3.78719399     2.91505199     1.16679303     0.21172580    -0.74338668     1.21077715
Ti     -0.01695098     6.59527302     1.16845602    -0.16923162    -0.27922859     0.32433347
Ti      0.00319602     2.73122799     1.19537802    -0.27418820     0.96864831     0.39390523
Ti      5.60950825     2.84651222     3.72718979    -0.60110409    -0.28003283    -1.08500517
Ti      5.71077822    -0.94496780     3.65369083    -0.58680438     0.01286092    -0.76382875
Ti      1.94354622     2.90326124     3.67173180     1.07967784     0.21921542    -0.59627093
Ti      1.86588121    -0.93274375     3.58380583     0.65669059    -0.15031086     0.57986908
O       3.94257499     4.80545199     0.82513402    -0.24806090    -0.93832368    -0.54028770
O       3.71417103     1.00392597     0.83305300     0.10272281     0.28437980    -0.75076574
O      -0.12435898     4.67665300     0.77292698     0.39343652     1.17524552     0.99304140
O       0.14406999     0.92708901     0.75531199     0.04026889    -0.96632197     0.57977164
O       5.75974723     4.71415421     4.02802981     0.37442989     0.04464877     0.46561461
O       5.56065021     0.91054323     4.11581783     0.62661818    -0.07807698    -0.73533886
O       1.90130121     4.77347725     4.05208679    -0.55877857     0.34122537     0.26623063
O       1.92540222     1.02406821     3.89886479    -0.47723678    -0.73601146     1.07723657
O       3.81753321     2.92242423     3.17720582    -0.40523146     0.01032221    -0.12686753
O       3.84804620    -1.07436375     3.22466482    -0.43587105     0.36496129     0.33476907
O      -0.00327376    -0.96790377     3.14621683     0.17382078     0.16594060     0.31051404
O       5.67676498     6.76430297     1.64972198     1.13934776    -0.03852542    -0.56987931
O       5.77024499     2.76465998     1.77087701     0.74424080    -0.14933744    -0.59088318
O       1.96382900     6.50903798     1.66826599    -1.19192119     0.24620636    -0.50130334
O       1.90863502     2.99500602     1.67941798    -0.90681891    -0.17531793    -0.42197989
