# total energy = -19073.79170010 eV

CRYSTAL
PRIMVEC
        5.17600016     0.00000000     0.00000000
        0.00000000     5.50899976     0.00000000
        0.00000000     0.00000000     9.26300011
PRIMCOORD
22 1
Ti      1.85865302     3.38888498     3.33170901     0.31650420     0.44897134    -0.15687489
Ti      3.80396399     2.28912998     5.92777000    -1.65002046    -1.24337567    -1.58788793
Ti      4.22873901     2.19233801     1.29619099     0.43675268     0.53703886    -0.76994592
Ti      0.73363599     3.17366398     8.18093899    -0.02412570     1.74067837    -0.59450818
Ti      1.69422600     0.51149998     1.27805598     0.62545527    -0.67150272    -0.84922181
Ti      3.26417801     5.07576901     7.97048002    -0.71721849     0.13348376     0.77232317
Ti      1.02698101     0.03449998     6.05349701    -0.25235130     0.73504756    -0.14410319
Ti      4.45996000     4.98475698     3.41291597    -1.56704451     0.23729080     0.71250797
O       3.50784598     3.55857000     4.57555898    -0.45522684    -0.01622470     0.02976876
O       0.69600699     1.93644498     0.34905500     1.54141394     0.16733800    -1.66717513
O       4.12674502     3.55222898     8.74266398     0.23091935    -0.70206749     0.54200597
O       3.29317898     0.77269901     0.23541000     0.70258814     1.08213787    -0.56503304
O       1.64206802     4.74717402     8.97256398    -1.63375026    -0.63439012     1.40943248
O       4.07424402     0.97159600     4.55024198     0.15188309    -0.14607702     1.61034550
O       0.98646201     4.94792498     4.19576402     0.71929466    -0.06449512     2.20241267
O       0.10280501     3.44434598     2.44925901     0.23639554    -0.71978060    -0.01306995
O       0.29879300     2.15799398     6.57953100     0.04378102    -1.21884965    -0.05498846
O       2.73599498     1.96578601     2.39297302    -1.66358124    -0.78591094     0.14932304
O       2.00052898     4.09590298     6.72416202     0.23502951    -1.22152617     0.15905030
O       5.04233798     0.67081800     2.07697700     0.98124594    -0.66785201     0.45069244
O       2.45743999     0.97722501     6.90036598     1.52813804     1.74418175    -0.95419459
O       2.71698100     4.56622302     2.31211601     0.21391741     1.26588337    -0.68085897
