# total energy = -19517.34481531 eV

CRYSTAL
PRIMVEC
        5.17600016     0.00000000     0.00000000
        0.00000000     5.50899976     0.00000000
        0.00000000     0.00000000     9.26300011
PRIMCOORD
23 1
Ti      1.78510600     3.22985599     3.39306802     0.51419228    -0.80492785     2.96875982
Ti      3.38723299     2.28112702     5.87650399    -0.03082060     0.11497283    -2.47378165
Ti      4.33409498     2.02406800     1.46086000     0.98883276    -0.44822881    -0.68117110
Ti      0.96792398     3.30357801     7.77874402    -1.49548708     0.20645143     1.40234163
Ti      2.00381200     0.28958601     1.31460800    -1.31966418     1.08915158    -0.30094208
Ti      3.18402099     5.34705702     7.84988798     1.20666056    -1.48275780     1.42100322
Ti      0.77529002     0.52899400     5.91945101    -1.32337351    -0.28177270    -2.84468888
Ti      4.47621997     4.84455999     3.31187498     0.01056621     0.62587488     3.57562292
O       1.61848200     1.91931599     4.86519600     0.50362556     0.11028905    -0.41595579
O       3.50177399     3.52062799     4.51358100     0.46812478     0.45040859    -0.73285672
O       0.22233102     2.64571601     0.11705099     0.48128369    -0.22863261    -0.47399487
O       3.40752001     0.93211001     0.12559001     0.52149910     0.53022466     0.68103534
O       1.76602800     4.79408997     9.09005397    -0.08630914    -1.30854853    -1.43491701
O       4.37487798     0.74536701     4.80688098    -1.02196169    -0.06958925     0.34507431
O       1.03653398     4.70686998     4.38847598    -0.26068168    -0.19638453     0.59257702
O       0.11736501     3.32080701     2.54621201     0.02501710    -0.33507040    -0.30038646
O       5.03019098     2.06333502     6.82345499    -0.43429008    -0.20254773     0.28700130
O       2.65084099     1.75216303     2.39669700     0.16274086     1.01229151    -0.45138535
O       2.59350299     3.73370597     6.92100998     0.30222506    -0.14214863     0.39181338
O       0.15267600     0.56586199     2.13453402     0.51462166     0.40204355    -1.17438729
O       5.05137998     4.69268400     7.31913199    -0.70441285     1.27359180    -0.56018574
O       2.25668802     1.13455798     7.06231898    -0.22380690     0.67673620    -0.26129668
O       2.76974400     4.52749302     2.27470498     1.20141782    -0.99142752     0.44072093
