# total energy = -19938.26503726 eV

CRYSTAL
PRIMVEC
        5.47594610     0.00000000     0.00000000
        0.00002313     4.30769848     0.00000000
        0.00000000     0.00000000     8.71854976
PRIMCOORD
24 1
Ti      1.98478081     2.55273817     3.23451978    -0.71831712     2.40193781    -4.45456412
Ti      3.49118848     1.75496046     5.48403003     0.71831712    -2.40193781     4.45456412
Ti      4.72265929     1.75496196     1.12472029    -0.71403315    -2.40206610     4.44816027
Ti      0.75331000     2.55273686     7.59382962     0.71403315     2.40206610    -4.44816027
Ti      1.98476934     0.39888902     1.12475525    -0.71788595     2.40203474     4.44530557
Ti      3.49119994     3.90880975     7.59379466     0.71788595    -2.40203474    -4.44530557
Ti      0.75329853     0.39888738     5.48399508     0.71452500     2.40211753     4.45718305
Ti      4.72267076     3.90881140     3.23455473    -0.71452500    -2.40211753    -4.45718305
O       1.73317969     1.51681389     4.44900921     0.89966815    -2.80413434     3.17326004
O       3.74278964     2.79088474     4.26954060    -0.89966815     2.80413434    -3.17326004
O       1.00484172     1.51683127     0.08976237    -0.89951672    -2.80545846     3.17436793
O       4.47112766     2.79086741     8.62878720     0.89951672     2.80545846    -3.17436793
O       3.74277817     0.63703545     0.08973409    -0.89926115     2.80476683     3.17373055
O       1.73319116     3.67066318     8.62881548     0.89926115    -2.80476683    -3.17373055
O       4.47111619     0.63701812     4.44903750     0.89914673     2.80572919     3.17447335
O       1.00485309     3.67068056     4.26951231    -0.89914673    -2.80572919    -3.17447335
O       0.19896787     2.62018640     2.35509780     2.42761954    -0.89242818     1.11162278
O       5.27700146     1.68751223     6.36345201    -2.42761954     0.89242818    -1.11162278
O       2.93694682     1.68747205     2.00420483     2.42854616     0.89280613    -1.11173462
O       2.53902251     2.62022663     6.71434484    -2.42854616    -0.89280613     1.11173462
O       0.19895640     0.46633716     2.00417698     2.42722333    -0.89250249    -1.11164103
O       5.27701293     3.84136152     6.71437268    -2.42722333     0.89250249     1.11164103
O       2.53901104     0.46637734     6.36347981    -2.42867112    -0.89250403    -1.11168886
O       2.93695829     3.84132129     2.35506995     2.42867112     0.89250403     1.11168886
