# total energy = -4986.09337565 eV

CRYSTAL
PRIMVEC
        3.91470938     0.00000000     0.00000000
        0.00000000     3.30279531     0.00000000
        0.00000000    -0.00007461     5.18492168
PRIMCOORD
6 1
Ti      1.95735458     1.65136030     2.59246100     0.00000000     0.00000000     0.00000000
Ti      0.00000000     0.00000000     0.00000000     0.00000000     0.00000000     0.00000000
O       1.95735458     0.64365161     1.01046492     0.00000000    -0.54603901     0.70821834
O       1.95735458     2.65906904     4.17445703     0.00000000     0.54603901    -0.70821834
O       0.00000000     1.00767896     3.60292691     0.00000000     0.54606240     0.70817669
O       0.00000000     2.29504164     1.58199509     0.00000000    -0.54606240    -0.70817669
