# total energy = -19075.72874891 eV

CRYSTAL
PRIMVEC
        7.60600008     0.00000000     0.00000000
        0.00000000     7.60600008     0.00000000
       -1.89786986    -1.89786986     4.85670466
PRIMCOORD
22 1
Ti      3.77942398     6.45902898     1.05877102    -0.13564503     1.41901113     1.90824879
Ti      3.77942398     2.86083202     1.22203802    -0.59340106    -0.95063309    -0.48166087
Ti      0.02245802     6.76005601     1.13841399     0.40243513    -0.57111267     0.52414580
Ti     -0.06448099     2.98264301     1.22480800     0.85828958    -0.76455226     0.50702302
Ti      5.74091624     2.88633921     3.67365880     0.39646117    -0.35782853    -0.44608399
Ti      5.84220421    -0.94674075     3.70558084    -0.46777357     0.72522980    -0.97284075
Ti      1.96450323     2.82982720     3.61273082    -0.78559084    -1.00608281    -1.29019444
Ti      1.90026423    -1.01838177     3.78856684    -0.55178388     1.16513311    -1.29904521
O       3.50772300     4.65742201     0.65927098     0.75023790     0.75127482     0.86527938
O       3.66404101     0.83680698     0.83563798     0.62536451     0.66219095     0.35247163
O       0.07283702     4.82414698     0.79986702    -0.29057590    -0.53595231    -0.92339533
O      -0.09674799     0.98182901     0.90714702     0.23949886    -0.01750948    -0.83206688
O       5.81111224     4.80584824     3.94334579     0.29859775    -0.38212006     1.48818463
O       5.74195020     0.95798122     3.78759580    -0.23956803     0.15093564     1.33706079
O       1.83451825     4.69465625     4.03302784     0.10675507     0.43516117    -0.37398818
O       1.77954721     0.90876424     4.11030481     0.88231397    -0.68207973    -0.64582073
O       3.83475623     3.14394825     3.32203280    -0.01612931    -1.17059696    -0.85173557
O       0.05729323     2.81525922     3.20435182    -1.34358599     0.52339118    -0.71115866
O       5.58712098     6.26533402     1.85338199     0.13536452     1.47539030    -0.65767481
O       5.69652399     2.87757598     1.47725899    -0.66724651     0.34982031     0.79644527
O       1.91877999     6.66972699     1.74555302    -0.50173194    -0.26758843     0.89200678
O       1.85385200     2.98043401     1.56793002     0.89771360    -0.95148181     0.81479961
