# total energy = -19957.33308674 eV

CRYSTAL
PRIMVEC
        5.46724142     0.00000000     0.00000000
        0.58045861     5.78977372     0.00000000
        0.00000000     0.00000000     9.79744265
PRIMCOORD
24 1
Ti      2.32559135     3.43101458     3.63478143     0.25277219    -0.98641978     0.63286314
Ti      3.72210885     2.35875919     6.16266155    -0.25277219     0.98641978    -0.63286314
Ti      4.95162228     2.35876116     1.26390093    -0.34565589    -0.07927331    -0.04935337
Ti      1.09607792     3.43101289     8.53354223     0.34565589     0.07927331     0.04935337
Ti      2.03536216     0.53612777     1.26394023     0.25277219    -0.98641978    -0.63286314
Ti      4.01233805     5.25364622     8.53350292    -0.25277219     0.98641978     0.63286314
Ti      0.80584866     0.53612564     6.16262231     0.34565589     0.07927331    -0.04935337
Ti      5.24185149     5.25364830     3.63482073    -0.34565589    -0.07927331     0.04935337
O       1.93480584     2.03867777     4.99956012     0.90708219     1.01282142    -0.27308725
O       4.11289436     3.75109606     4.79788287    -0.90708219    -1.01282142     0.27308725
O       1.20762796     2.03870118     0.10087017    -0.51662969     0.27684621     0.35569194
O       4.84007229     3.75107270     9.69657259     0.51662969    -0.27684621    -0.35569194
O       3.82266516     0.85620903     0.10083840    -0.90708219    -1.01282142    -0.27308725
O       2.22503504     4.93356480     9.69660436     0.90708219     1.01282142     0.27308725
O       4.54984309     0.85618566     4.99959194     0.51662969    -0.27684621     0.35569194
O       1.49785705     4.93358817     4.79785110    -0.51662969     0.27684621    -0.35569194
O       0.55170533     3.52166871     2.64653375     0.12863774     0.23504288     0.37401877
O       5.49599481     2.26810511     7.15090923    -0.12863774    -0.23504288    -0.37401877
O       3.15965456     2.26805119     2.25221889     0.48933099     0.44027150    -0.06016127
O       2.88804564     3.52172258     7.54522398    -0.48933099    -0.44027150     0.06016127
O       0.26147613     0.62678168     2.25218757     0.12863774     0.23504288    -0.37401877
O       5.78622400     5.16299209     7.54525524    -0.12863774    -0.23504288     0.37401877
O       2.59781644     0.62683560     7.15094050    -0.48933099    -0.44027150    -0.06016127
O       3.44988376     5.16293823     2.64650249     0.48933099     0.44027150     0.06016127
