# total energy = -4990.19821407 eV

CRYSTAL
PRIMVEC
        4.03323846     0.00000000     0.00000000
       -0.00000814     3.64912092     0.00000000
       -2.01664769    -1.82459709     4.91448595
PRIMCOORD
6 1
Ti     -0.00017630     2.73697781     1.22862125    -0.00104567    -0.00230140     2.31634266
Ti      2.01675862    -0.91245387     3.68586412     0.00104567     0.00230140    -2.31634266
O       0.00004098     0.91227336     0.80052952     0.00010439     0.00075385    -0.26626637
O       2.01654117     0.91225047     4.11395595    -0.00010439    -0.00075385     0.26626637
O      -0.00002068    -0.91226060     3.25777239    -0.00123439    -0.00026071    -0.36561512
O       2.01660283     2.73678438     1.65671308     0.00123439     0.00026071     0.36561512
