# total energy = -39034.86062322 eV

CRYSTAL
PRIMVEC
        5.93200024     0.00000000     0.00000000
        0.00000000     9.29399984     0.00000000
        0.00000000     0.00000000     9.29399984
PRIMCOORD
46 1
Ti      4.44105498     6.99611801     6.96767098     2.25559236    -0.36109075    -0.13497165
Ti      4.41756502     6.98215599     2.37445600     2.04614456     0.67002768     0.06351681
Ti      4.49633702     2.30094899     6.88155601    -0.50970956    -0.87414969     0.69393946
Ti      4.15617500     2.49316199     2.14362502     0.56711872    -0.69935420     0.74391401
Ti      1.62535602     6.90873799     6.88132698    -2.28809729     1.19288124     1.19969081
Ti      1.56267899     6.88432403     2.33366702    -2.10280630     0.96684108    -0.08696065
Ti      1.56265402     2.39693402     6.97163499    -0.16977566    -1.31790632     0.48796085
Ti      1.20976201     2.01850900     2.47102000     0.98413844     0.89516666    -0.53494007
Ti      2.93527403     4.57533000     4.66963098     0.81627413     0.74037540    -0.15348257
Ti      3.02879102     4.88202002     9.12674702    -0.85269228    -1.98506824     1.01049405
Ti      3.04481398     9.25912399     4.66342701    -0.46567298     1.04674636    -0.74254155
Ti      2.94949900     9.21292502     9.21133002    -1.14151263    -0.07969497    -0.45245005
Ti      0.04480501     4.60685098     4.67490799    -0.99335764     0.86817341    -0.81987754
Ti      0.00804900     4.74579202     0.01087898     0.32205342     0.02493251    -0.45451413
Ti      0.08440001     9.04607897     4.79026101    -0.46027494     1.55033516     0.44774621
Ti      5.86982700     0.25801402     0.02019801    -0.32977521    -1.21596487     0.74120509
O       4.40303799     5.54878701     5.77361903     0.40930949    -0.56356648    -1.11433941
O       4.32332998     5.68639998     0.88854099     1.02946932    -0.67304384     0.59427035
O       4.48138400     0.82566902     5.46634802     0.04850748     1.88963888     1.09799978
O       4.32320800     0.95372399     0.90523002     1.37278448     0.88405152    -0.20744851
O       1.42449700     5.57491000     5.59263998    -0.17082339    -1.20284144    -0.70037390
O       1.52329302     5.68714802     0.88462302     0.21242848    -0.96115637    -0.20008924
O       1.49193397     1.00988800     5.59078098     0.00285290    -0.64120997    -0.91632968
O       1.55949599     0.99469802     0.85160299    -1.45050356    -0.01183608     0.27634407
O       4.42201698     8.37527802     8.60032303     1.47228801    -0.72418644    -1.47314856
O       4.52351302     8.35560897     3.89064000    -0.26797821    -0.98783620    -1.51022156
O       4.42520501     3.76698498     8.43427498     0.31683125     0.05004243     0.18825701
O       4.32397499     3.84231802     3.64948900     0.31737015    -1.02853678    -0.02796667
O       1.60031397     8.35275502     8.07718199    -0.07891438     1.52559574     2.60869366
O       1.42921298     8.43985002     3.77917399     0.90166873    -0.36533384    -0.56333868
O       1.54974400     3.75913098     8.46536801    -0.61749282     0.04838098    -0.11536004
O       1.49438200     3.71017299     3.79428301    -0.36745294    -1.23130073    -0.48630429
O       3.03598000     6.10918699     7.88567799    -0.42636825     0.59448761    -0.76925970
O       2.93687500     6.06830201     3.41142798     0.43319171     0.66928745    -0.78588394
O       3.08611002     1.33003802     7.85792100    -0.59591097     1.05838447    -0.56789391
O       2.96589100     1.20726403     3.02211498    -0.20866438     1.63904108     0.84858700
O       0.05835502     6.19910600     7.98769902    -0.36073285    -1.30550922     0.30068883
O       0.06403500     5.90357199     3.12383401    -0.44730141     0.35430380     0.92209949
O       0.01996797     1.44247998     7.80981498    -0.09079289    -0.44944700     0.93048464
O       2.99285502     7.85148901     5.99404802     0.51897685     0.18009350    -0.22133735
O       3.03710101     7.94474200     1.58221997    -0.46348060    -0.23900110    -0.33193134
O       2.99450298     3.16310399     6.04747402     0.11863074     0.74923465    -0.12822302
O       0.02346801     7.84273102     6.07516301    -0.03930241    -0.61601521     0.69615318
O       0.08097798     7.99161297     1.56641800    -0.53366685    -0.38809145    -0.30010030
O       5.88822400     3.20635100     6.03329398     0.74722456     0.53826887    -0.20393715
O       5.85161901     3.16837602     1.51185300     0.54020414    -0.21414906     0.15117887
