# total energy = -4979.92868693 eV

CRYSTAL
PRIMVEC
        4.04559881     0.00000000     0.00000000
       -0.00000694     2.99022538     0.00000000
       -2.02282417    -1.49515180     4.59298061
PRIMCOORD
6 1
Ti     -0.00017471     2.24277914     1.14824488    -0.00553430    -0.01166330    13.91215746
Ti      2.02294222    -0.74770557     3.44473504     0.00553430     0.01166330   -13.91215746
O       0.00004220     0.74754927     0.74815888     0.00515686     0.01165970    -4.99794821
O       2.02272517     0.74752426     3.84482104    -0.00515686    -0.01165970     4.99794821
O      -0.00001811    -0.74754639     3.04464904    -0.00054379    -0.00030622     1.33650646
O       2.02278542     2.24261982     1.54833093     0.00054379     0.00030622    -1.33650646
