# total energy = -79406.24217155 eV

CRYSTAL
PRIMVEC
       10.35150501     0.00002646     0.00000000
        0.00002858    11.01713167     0.00000000
        0.00000000     0.00000000     9.26345890
PRIMCOORD
95 1
Ti      7.03015399     8.82018718     3.46931292    -0.02714597    -0.02879328    -0.01313731
Ti      7.10013848     3.24422282     3.42212803     0.04792050    -0.02804123     0.02283963
Ti      1.87846687     8.78049266     3.44022973    -0.13246354     0.15141104     0.11360038
Ti      1.79729395     3.19431365     3.45532238    -0.09535557    -0.21587607     0.17562878
Ti      8.48742070     7.74761272     5.81500088    -0.04682752     0.00102844    -0.03676576
Ti      8.48500965     2.24231891     5.82622923     0.06803861    -0.10016225     0.03735506
Ti      3.27627095     7.74187612     5.82108615    -0.00127655     0.03844135     0.03034443
Ti      3.28568200     2.28692055     5.77972977    -0.02309289    -0.31023868     0.11293729
Ti      9.54772279     7.77857279     1.22897294     0.11219836     0.05080322    -0.16128228
Ti      9.64984519     2.21426012     1.17966291    -0.00696821    -0.10841163    -0.05083947
Ti      4.46473051     7.71830696     1.21033057     0.10772361     0.04808248    -0.04400702
Ti      4.45755148     2.27590507     1.20989400     0.12548351    -0.14899497    -0.01704385
Ti      5.89126215     8.78938049     8.08837387     0.03692440     0.04311999    -0.00858209
Ti      5.88883836     3.23423134     8.04080047     0.07846907     0.14502570     0.12102341
Ti      0.67016322     8.90053163     7.95104352     0.10785396    -0.24078441     0.15053943
Ti      0.71433423     3.28038630     8.08214147    -0.01224360    -0.02312965    -0.06018132
Ti      7.01467508     6.00001254     1.17910843     0.12137257     0.09407156     0.01665073
Ti      7.03044645     0.53133487     1.20590762     0.03579928     0.03613841     0.09550983
Ti      1.75451394     6.25624515     0.96874639    -0.01128483     0.06135580     0.01130103
Ti      1.87699820     0.49950145     1.17613727     0.00826661     0.04075869    -0.00393482
Ti      8.43307241    10.49793930     8.09578415    -0.00916084    -0.06304733    -0.00344759
Ti      8.49100799     4.98005203     8.09959607     0.03370203    -0.04518844    -0.07350632
Ti      3.32327968    10.51410537     8.08385704    -0.00844453    -0.09783951    -0.00411891
Ti      3.29424893     4.95828309     8.07013166     0.11986616     0.02687395    -0.04375736
Ti      5.90183670     6.10654453     5.92794630    -0.00224869    -0.02777667     0.00604415
Ti      5.88007991     0.53913499     5.83709397     0.09379799     0.01370681     0.01258427
Ti      0.72469290     6.01175892     5.81638862    -0.00005965     0.06374256     0.05498563
Ti      0.73805365     0.52588579     5.83675765    -0.03502847     0.10956940    -0.03291527
Ti      9.64381883    10.51977187     3.44409110    -0.02544236    -0.10268039     0.04447290
Ti      9.64769203     5.00744518     3.40664560    -0.04351105    -0.04073426    -0.00667741
Ti      4.45789109    10.51168946     3.44210684    -0.08735635    -0.10269890     0.04603536
Ti      4.64178562     4.97469433     3.58211043     0.28462714    -0.13003925     0.22078405
O       6.81903639     7.44245039     4.71945011     0.01591771    -0.01580483     0.09824729
O       6.82160608     1.93406343     4.72710588     0.05699855     0.03551749    -0.01893335
O       1.63631844     7.45903554     4.75370652     0.01059398    -0.02350478    -0.04749935
O       1.62989205     1.90515773     4.73814410    -0.02258175    -0.05486916     0.02313222
O       8.71713909     9.07815504     4.53889013     0.02171992     0.03123840     0.00568651
O       8.74248058     3.56867026     4.53821063     0.02349295     0.02003327    -0.00733845
O       3.53240334     9.08137568     4.54171249    -0.00447424    -0.00824579     0.00799768
O       3.55591869     3.60554007     4.46673257    -0.10855202     0.23830613    -0.35865205
O       6.12625971     7.43969788     0.10601670    -0.01890147    -0.08324849     0.04062524
O       6.12186823     1.92798540     0.10004035    -0.00380755    -0.01807872    -0.06582001
O       0.91471220     7.47866976     0.00629603     0.04635881    -0.16006974     0.08067122
O       0.93471345     1.91529819     0.08649507     0.03107745     0.03848223    -0.02623863
O       9.38440423     9.08750770     9.17203270    -0.04198639     0.10885515    -0.02271982
O       9.40284519     3.56898584     9.16096062     0.05225409    -0.01231302     0.00975708
O       4.21451047     9.04404592     9.17763825    -0.00843219     0.02987469     0.02848989
O       4.24149623     3.57256311     9.16538739    -0.07010810     0.02062051     0.04879776
O       8.72618801     6.31909874     0.09992708    -0.06199575     0.02531741     0.04320406
O       8.70693434     0.81599846     0.09134535    -0.02974356     0.03413938     0.01531067
O       3.54300705     6.29339435     0.11008079    -0.13804335     0.08292351     0.00261687
O       3.53227817     0.82652457     0.12222636     0.01526670    -0.06015715    -0.04586515
O       6.81261779    10.19240003     9.16786759    -0.08935152    -0.01055258     0.06414159
O       6.82256145     4.68199945     9.16017132     0.00409963    -0.02872566     0.03054549
O       1.64125532    10.19434093     9.18731639    -0.03417846    -0.01061480    -0.04807065
O       1.67023745     4.63736624     9.22201302    -0.01673789     0.27286100     0.05763078
O       9.41838165     6.30657452     4.73974867    -0.02013149    -0.00714998    -0.09151768
O       9.39995276     0.81349123     4.72917034    -0.04877744     0.01064283    -0.00629046
O       4.20845825     6.33826888     4.72640411     0.01633705    -0.08125897    -0.05159692
O       4.21828027     0.83937867     4.71877115    -0.02363950    -0.06219835    -0.04349820
O       6.11199902    10.20484926     4.54040925    -0.00251377    -0.03179119    -0.00116008
O       6.14062032     4.68632721     4.57915480     0.10616757     0.03704293    -0.03649965
O       0.94561139    10.18838729     4.53914624     0.01875543    -0.02040325    -0.03779317
O       1.03643374     4.72956608     4.45687185     0.01423569     0.02773244    -0.06158231
O       5.36067177     8.84568951     2.50254830    -0.06264624    -0.00233045     0.01684253
O       5.42600201     3.33834433     2.48423116    -0.11664817     0.09652748     0.08786620
O       0.19991694     8.85054188     2.49357728    -0.01629746     0.01870118    -0.05236979
O       0.16347120     3.36899390     2.47684109     0.06042018     0.04741527     0.04044295
O      10.16475866     7.65988469     6.75684478     0.00610252     0.00335915    -0.07964278
O      10.17008578     2.13225185     6.76497740     0.02384750     0.05622619     0.02961475
O       5.00038755     7.64772155     6.76071229    -0.06575804     0.06152215     0.09595283
O       4.99027580     2.14959940     6.75220096    -0.07995054     0.05057516     0.00359980
O       7.93435555     7.66528555     2.14106716    -0.01789000    -0.00571839    -0.03346575
O       7.96269175     2.13380114     2.12800545    -0.02130957    -0.01331549     0.03826189
O       2.77430064     7.52386434     2.18591067    -0.12485976    -0.06729428    -0.18436642
O       2.75931428     2.21292891     2.12658951     0.09969559     0.18151069    -0.00669541
O       7.56791667     8.84873266     7.13181133    -0.05447655    -0.02836134    -0.00071682
O       7.57591985     3.34892009     7.13152886     0.04119783    -0.03316236    -0.04622665
O       2.38944773     8.85684088     7.13895204     0.01933907     0.05865486    -0.05840572
O       2.39787576     3.36798384     7.10611554    -0.04300223    -0.06518880     0.01990266
O       5.34331549     6.06057928     2.10658518    -0.13711801    -0.07033847     0.18915124
O       5.36041968     0.59560479     2.13871882    -0.01260021    -0.01275756     0.00752434
O       0.21911743     6.13162901     2.12445796    -0.01480313     0.00130895    -0.11570560
O       0.18986272     0.61195958     2.14390221     0.04545404     0.00003240     0.00954831
O      10.15801345    10.40383628     7.13758921    -0.16048575     0.19885253    -0.13711544
O      10.18186219     4.90319794     7.13035573    -0.01424726    -0.07410899    -0.01573464
O       4.99724608    10.40517833     7.14057089    -0.04619863     0.03772890     0.01342888
O       4.98884024     4.90808316     7.13643837     0.01117685    -0.04229826    -0.00032859
O       7.57618056     6.10319512     6.76854920     0.04815498     0.00100864     0.08300218
O       7.56571961     0.58981780     6.76741299    -0.04542832     0.04808556    -0.01495071
O       2.39756769     6.10898114     6.78446279     0.00969461    -0.02607537    -0.03071004
O       2.39285234     0.55052773     6.79350014     0.05936319     0.14932844    -0.11885803
O       7.94796895    10.41598740     2.49939554     0.03634796    -0.00241195     0.02214852
O       7.95167955     4.91673847     2.51200223     0.09386998     0.00515352    -0.03694420
O       2.78022818    10.39362623     2.49580891    -0.02439746    -0.00692295    -0.02326901
