# total energy = -19074.63102813 eV

CRYSTAL
PRIMVEC
        7.60600008     0.00000000     0.00000000
        0.00000000     7.60600008     0.00000000
       -1.89786986    -1.89786986     4.85670466
PRIMCOORD
22 1
Ti      3.97201402     6.44571297     1.27924197    -0.09005652     0.54233148     0.43340896
Ti      3.71766598     2.76872702     1.16926301     1.37823342    -1.85545117    -0.67160016
Ti      0.28291102     6.82731602     1.04350102    -0.41987827    -0.51460109     0.74726596
Ti      0.03317301     2.98413899     1.10072101    -1.55563626    -0.14847715    -0.36437456
Ti      5.62928720     3.05124020     3.52844680    -0.63896308    -0.72429263    -0.56413624
Ti      6.03735324    -0.78279079     3.62130984    -0.11897193    -0.09504678    -0.03533083
Ti      1.81460621     2.84367424     3.61353284     0.57678376    -3.00088242     0.21322064
Ti      1.22991821    -1.28472579     3.95775581     2.29227764     2.90880758    -1.21143330
O       3.92836499     4.51251402     0.78070499    -0.47896379     3.63429835    -0.13002948
O       4.03736799     0.89720198     0.75045801    -0.90038343    -1.47340027     1.19814532
O       0.10576401     4.91915398     0.69017398     0.48474363    -0.06699500    -0.23262399
O      -0.00102697     1.05871201     0.68781602     0.37349221     1.01384806     1.31109546
O       5.36710321     5.04727425     3.97693880     0.53314801    -1.59167388    -0.74743694
O       5.62552020     1.11291723     3.90734782     0.78561089    -0.84716492     0.95137229
O       2.09105121     4.64807521     4.26998081    -0.75431258    -0.74408293    -1.02708899
O       1.62740425     0.77315521     4.02890782    -0.63160201     0.45803423     0.49899449
O       3.73550724     2.64733424     3.23683383     0.23659223     0.98016197    -0.36815228
O      -0.06025477     2.82154225     3.17060381     0.71337829     1.23324757    -0.11956328
O       5.87688902     6.61485501     1.76853201    -0.84691244     0.12655437    -0.42197475
O       5.71495502     2.97085802     1.49534801     0.57393600    -0.04687560     1.22913278
O       2.04140798     6.51904900     2.20844600    -0.01575624    -0.29692370    -1.12341129
O       1.91458398     2.75834102     1.60610100    -1.49675952     0.50858368     0.43451994
