# total energy = -4958.41185615 eV

CRYSTAL
PRIMVEC
        4.79576969     0.00000000     0.00000000
       -0.00000679     2.58233784     0.00000000
       -2.39791147    -1.29122703     5.17368464
PRIMCOORD
6 1
Ti     -0.00020527     1.93684236     1.29342096    -0.01844587    -0.02131574    33.02692096
Ti      2.39805633    -0.64573139     3.88026328     0.01844587     0.02131574   -33.02692096
O       0.00005091     0.64557435     0.84275089     0.01746705     0.01949051   -23.63235489
O       2.39780006     0.64553652     4.33093344    -0.01746705    -0.01949051    23.63235489
O      -0.00001958    -0.64559185     3.42959322    -0.00181931     0.00000026    -1.11203004
O       2.39787045     1.93670272     1.74409112     0.00181931    -0.00000026     1.11203004
