# total energy = -19917.40097277 eV

CRYSTAL
PRIMVEC
        7.86067418     0.00000000     0.00000000
        0.00002631     4.02813877     0.00000000
        0.00000000     0.00000000    11.87622957
PRIMCOORD
24 1
Ti      2.84913203     2.38707138     4.40599647     0.17169782    -0.10612284     2.45415410
Ti      5.01156863     1.64106757     7.47023322    -0.17169782     0.10612284    -2.45415410
Ti      6.77933457     1.64106900     1.53207093     0.17195082     0.10631567    -2.45432945
Ti      1.08136616     2.38707013    10.34415894    -0.17195082    -0.10631567     2.45432945
Ti      2.84911894     0.37300206     1.53211856     0.17169782    -0.10612284    -2.45415410
Ti      5.01158179     3.65513701    10.34411131    -0.17169782     0.10612284     2.45415410
Ti      1.08135300     0.37300051     7.47018560    -0.17195082    -0.10631567    -2.45432945
Ti      6.77934767     3.65513856     4.40604409     0.17195082     0.10631567     2.45432945
O       2.48796237     1.41837620     6.06034906     1.79822173     0.85186876    -1.55181123
O       5.37273836     2.60976275     5.81588064    -1.79822173    -0.85186876     1.55181123
O       1.44243942     1.41839240     0.12227243    -1.79817134     0.85210581    -1.55339529
O       6.41826137     2.60974654    11.75395690     1.79817134    -0.85210581     1.55339529
O       5.37272520     0.59569337     0.12223391    -1.79822173    -0.85186876    -1.55181123
O       2.48797546     3.43244558    11.75399548     1.79822173     0.85186876     1.55181123
O       6.41824827     0.59567716     6.06038757     1.79817134    -0.85210581    -1.55339529
O       1.44245234     3.43246185     5.81584212    -1.79817134     0.85210581     1.55339529
O       0.28561259     2.45014238     3.20806588    -1.82116267     0.57609162     0.32293530
O       7.57508808     1.57799663     8.66816381     1.82116267    -0.57609162    -0.32293530
O       4.21595952     1.57795902     2.73008670    -1.82120586    -0.57610190    -0.32339373
O       3.64474115     2.45017998     9.14614281     1.82120586     0.57610190     0.32339373
O       0.28559949     0.43607294     2.73004878    -1.82116267     0.57609162    -0.32293530
O       7.57510123     3.59206601     9.14618073     1.82116267    -0.57609162     0.32293530
O       3.64472805     0.43611054     8.66820167     1.82120586     0.57610190    -0.32339373
O       4.21597267     3.59202841     3.20802796    -1.82120586    -0.57610190     0.32339373
