# total energy = -4988.27695672 eV

CRYSTAL
PRIMVEC
        3.15434562     0.00000000     0.00000000
        1.21658766     4.79031321     0.00000000
       -0.00000782    -0.00006477     4.98206557
PRIMCOORD
6 1
Ti      2.18546261     2.39512412     2.49103284     0.00000000     0.00000000     0.00000000
Ti      0.00000000     0.00000000     0.00000000     0.00000000     0.00000000     0.00000000
O       1.81426621     0.93354881     0.97093123     0.01019906    -0.01566265    -0.22154459
O       2.55665895     3.85669944     4.01113445    -0.01019906     0.01566265     0.22154459
O       0.37119307     1.46154910     3.46196507    -0.00990724     0.01611131    -0.22195596
O       0.84538664     3.32869924     1.52010061     0.00990724    -0.01611131     0.22195596
