# total energy = -19936.32515710 eV

CRYSTAL
PRIMVEC
        5.22834880     0.00000000     0.00000000
        2.61863131     4.90988054     0.00000000
        0.00000000     0.00000000     9.68340258
PRIMCOORD
24 1
Ti      3.44682348     2.90959066     3.59247331     3.77096539    -4.69337676     1.11353722
Ti      4.40015676     2.00029000     6.09092938    -3.77096539     4.69337676    -1.11353722
Ti      5.57594703     2.00029175     1.24918935    -8.01521396     1.45487906     1.75899388
Ti      2.27103338     2.90958914     8.43421339     8.01521396    -1.45487906    -1.75899388
Ti      2.13750803     0.45465056     1.24922819     3.77096539    -4.69337676    -1.11353722
Ti      5.70947231     4.45523029     8.43417460    -3.77096539     4.69337676     1.11353722
Ti      0.96171768     0.45464867     6.09089053     8.01521396    -1.45487906     1.75899388
Ti      6.88526265     4.45523213     3.59251210    -8.01521396     1.45487906    -1.75899388
O       2.57687005     1.72885244     4.94136624    -0.00472697     1.13544560    -1.42182623
O       5.27011025     3.18102826     4.74203645     0.00472697    -1.13544560     1.42182623
O       1.88147477     1.72887221     0.09969606     1.91740861    -0.45816998    -0.82694730
O       5.96550560     3.18100853     9.58370631    -1.91740861     0.45816998     0.82694730
O       3.96079470     0.72608797     0.09966463     0.00472697    -1.13544560    -1.42182623
O       3.88618560     4.18379269     9.58373774    -0.00472697     1.13544560     1.42182623
O       4.65619005     0.72606824     4.94139761    -1.91740861     0.45816998    -0.82694730
O       3.19079021     4.18381247     4.74200502     1.91740861    -0.45816998     0.82694730
O       1.78275799     2.98646764     2.61572862     0.50262540    -1.18896082    -0.86069201
O       6.06422232     1.92341306     7.06767402    -0.50262540     1.18896082     0.86069201
O       3.82994981     1.92336721     2.22600348     2.12518570    -1.02236921    -2.18814536
O       4.01703050     2.98651349     7.45739900    -2.12518570     1.02236921     2.18814536
O       0.47344243     0.53152734     2.22597257     0.50262540    -1.18896082     0.86069201
O       7.37353786     4.37835331     7.45742991    -0.50262540     1.18896082    -0.86069201
O       2.70771494     0.53157320     7.06770487    -2.12518570     1.02236921    -2.18814536
O       5.13926535     4.37830745     2.61569771     2.12518570    -1.02236921     2.18814536
