# total energy = -19075.44212325 eV

CRYSTAL
PRIMVEC
        7.60600008     0.00000000     0.00000000
        0.00000000     7.60600008     0.00000000
       -1.89786986    -1.89786986     4.85670466
PRIMCOORD
22 1
Ti      3.79953700     6.71296701     1.09531700    -0.15699136    -1.22034860     0.93468582
Ti      3.85561502     2.82692001     1.24661799     0.79966017     2.06900373     0.51588896
Ti      0.01574800     6.64794198     1.10083098     0.58108933    -1.26547431     0.54261944
Ti      0.11277699     2.68220601     1.15953298    -1.09848135     1.82422665    -0.91446717
Ti      5.76859824     2.77089025     3.53789880    -0.51464068    -0.34086927     1.36870362
Ti      6.01158321    -1.05886479     3.65387080    -0.79175403     1.07311561     0.27087945
Ti      1.94375922     2.92627521     3.66494780     0.22002609    -1.07741064     0.09312385
Ti      1.29791421    -0.76838976     3.88622782     1.27641410    -0.36145122    -2.33051665
O       3.67634602     4.73204701     0.79271699     0.17915299     1.66620017    -0.21226470
O       3.86791099     1.04187698     0.81123201     0.09906824    -1.30909823     1.40274015
O       0.14554301     4.60549501     0.69662999     0.22569820     0.85880122    -0.46617434
O       7.17002598     0.89960598     0.69213199     1.20921109     0.32399229     0.61961141
O       5.55745224     4.73283220     4.10630380     0.79769662    -0.25221400    -1.57143749
O       5.50531521     0.85336822     3.88981379     1.28628842    -0.41297871    -0.11292495
O       2.01540722     4.87312821     4.14733880    -0.60378318     0.23235736    -0.75244416
O       2.08906023     0.98948621     4.05167281    -1.22220751    -0.33473179     0.11054694
O       3.81986624     2.88993322     3.26030882    -0.10004577     0.14226999    -0.63566641
O       0.10953223     2.94635124     3.08457281    -0.37408228    -0.47060590     1.16790528
O       5.88190700     6.44565799     1.77781299    -1.88622934     0.20266188    -0.03627185
O       5.78027200     3.06426199     1.64455600    -0.81758617    -0.70884158    -0.05354299
O       1.79241802     6.75057903     1.98838399     0.24508896    -0.03227636    -0.17326028
O       1.93449401     2.81548200     1.54055700     0.64640746    -0.60632883     0.23226583
