# total energy = -19901.42835715 eV

CRYSTAL
PRIMVEC
        7.06490238     0.00000000     0.00000000
        0.00003516     6.80307881     0.00000000
        0.00000000     0.00000000    12.07267815
PRIMCOORD
24 1
Ti      2.56070818     4.03149814     4.47887759     0.23617288    -0.95140802     0.79844353
Ti      4.50422935     2.77158053     7.59380097    -0.23617288     0.95140802    -0.79844353
Ti      6.09303625     2.77158287     1.55741346     0.23607389     0.95154892    -0.79870732
Ti      0.97190136     4.03149614    10.51526530    -0.23607389    -0.95154892     0.79870732
Ti      2.56069067     0.62995887     1.55746189     0.23617288    -0.95140802    -0.79844353
Ti      4.50424693     6.17312000    10.51521687    -0.23617288     0.95140802     0.79844353
Ti      0.97188378     0.62995639     7.59375260    -0.23607389    -0.95154892    -0.79870732
Ti      6.09305376     6.17312255     4.47892602     0.23607389     0.95154892     0.79870732
O       2.23609861     2.39547961     6.16059541     1.13354555     1.37184628    -0.48111014
O       4.82883899     4.40759905     5.91208315    -1.13354555    -1.37184628     0.48111014
O       1.29641874     2.39550713     0.12429499    -1.13330567     1.37205531    -0.48183391
O       5.76851893     4.40757161    11.94838329     1.13330567    -1.37205531     0.48183391
O       4.82882141     1.00605958     0.12425585    -1.13354555    -1.37184628    -0.48111014
O       2.23611619     5.79701909    11.94842243     1.13354555     1.37184628     0.48111014
O       5.76850135     1.00603214     6.16063462     1.13330567    -1.37205531    -0.48183391
O       1.29643611     5.79704660     5.91204401    -1.13330567     1.37205531     0.48183391
O       0.25670575     4.13801820     3.26113163    -0.18735404    -0.11105807     0.10004912
O       6.80823186     2.66506054     8.81154692     0.18735404     0.11105807    -0.10004912
O       3.78916319     2.66499722     2.77524603    -0.18729054     0.11124216    -0.10019027
O       3.27577434     4.13808152     9.29743239     0.18729054    -0.11124216     0.10019027
O       0.25668817     0.73647873     2.77520744    -0.18735404    -0.11105807    -0.10004912
O       6.80824937     6.06660001     9.29747091     0.18735404     0.11105807     0.10004912
O       3.27575683     0.73654205     8.81158545     0.18729054    -0.11124216    -0.10019027
O       3.78918077     6.06653662     3.26109311    -0.18729054     0.11124216     0.10019027
