# total energy = -19960.71974703 eV

CRYSTAL
PRIMVEC
        7.60600008     0.00000000     0.00000000
        0.00000000     7.60600008     0.00000000
       -1.89786986    -1.89786986     4.85670466
PRIMCOORD
24 1
Ti      3.85119999     6.57906098     1.20606898     0.55079966     0.32181122    -1.02067408
Ti      3.74586700     2.76709001     1.22675902     2.55061576    -0.44172494    -0.15253152
Ti     -0.02067898     6.76554998     1.18746798    -0.45421408    -1.12518741     0.09556460
Ti      0.09509400     2.90105102     1.20839001    -2.66516462     0.69945936     0.85490523
Ti      5.69517024     2.88332025     3.67646482    -1.51043471     1.49981168    -1.09812088
Ti      5.69639122    -0.81456476     3.66171379    -0.22139932    -1.45921908    -0.67597567
Ti      1.87371922     2.74651221     3.57878981     1.36009891     0.08927516     2.40449683
Ti      1.93285425    -0.99835178     3.56410281     0.09977401    -0.20846666     1.58063022
O       3.98221502     4.56727101     0.77275399    -1.28572021     2.03827955    -0.05957223
O       3.93361400     0.91509902     0.70039800    -0.56958209    -1.34395340     0.52476209
O      -0.11501599     4.85308303     0.78728700     0.93572660    -1.26527762     0.84723563
O      -0.11924702     0.98527602     0.79039898     0.64209212     1.19339109     0.14844501
O       5.41285122     4.82245224     4.12932582     0.99035562     0.36363794    -0.62144024
O       5.57089323     1.04847423     4.18594281     0.73462847    -1.02489121    -0.75515282
O       2.15060921     4.64504720     4.07751381    -1.11568975     0.19270811    -0.32296179
O       1.92480922     0.84135225     4.09657081    -0.69323806     0.94712405    -1.17558593
O       3.72644820     2.71359220     3.18170182     0.07633480     0.12918050     0.58450453
O       3.84568321    -0.82374477     3.15504081    -0.04494187    -0.12030916     0.10649436
O      -0.11646175     3.02539323     3.21407381     1.98800701    -0.30229011     0.17053362
O       0.01236920    -0.89618279     3.26205283    -1.00440388    -0.10734694     0.05693967
O       5.70080598     6.69395002     1.59472099     0.35871582    -0.05211114     1.08337920
O       5.62217702     2.84987201     1.72432100     1.18788507    -0.36596479    -0.17203078
O       1.89828500     6.62731999     1.66917300     0.18424275    -0.11250715    -1.35946487
O       1.91380900     2.59511402     1.67763100    -2.09448775     0.45457146    -1.04438018
