# total energy = -4980.79290413 eV

CRYSTAL
PRIMVEC
        2.71500328     0.00000000     0.00000000
        1.24811794     4.06678551     0.00000000
       -0.00000831    -0.00005575     4.30377303
PRIMCOORD
6 1
Ti      1.98155651     2.03336492     2.15188652     0.00000000     0.00000000     0.00000000
Ti      0.00000000     0.00000000     0.00000000     0.00000000     0.00000000     0.00000000
O       1.60073983     0.79254582     0.83874196    -7.49901930     3.31950007     4.08497536
O       2.36237323     3.27418401     3.46503102     7.49901930    -3.31950007    -4.08497536
O       0.38081327     1.24079653     2.99062943     7.49967493    -3.32140243     4.08704381
O       0.86729654     2.82593310     1.31314360    -7.49967493     3.32140243    -4.08704381
