# total energy = -19960.60814194 eV

CRYSTAL
PRIMVEC
        7.60600008     0.00000000     0.00000000
        0.00000000     7.60600008     0.00000000
       -1.89786986    -1.89786986     4.85670466
PRIMCOORD
24 1
Ti      3.94555801     6.61568301     1.19113899    -2.00468782    -0.54697232    -0.25987666
Ti      3.80112702     2.72653202     1.19900701    -0.34920042     1.00357238    -0.66494846
Ti     -0.01935101     6.65286999     1.13536498     1.82710037     1.52480512     0.92082500
Ti     -0.07800401     2.95191501     1.28458100     0.43217612    -1.05892183     0.54767346
Ti      5.63192520     2.79715823     3.65674783     1.83957743     1.01054933     0.33229978
Ti      5.69110024    -0.89382276     3.63959683     1.06609649    -1.18362809     0.61188061
Ti      1.98963222     2.79755522     3.66043281    -1.56827555     0.52863469    -0.06280899
Ti      1.99304821    -0.95944275     3.67093280    -1.09084029    -0.24739498    -2.57362251
O       3.85893900     4.68116403     0.72453499     0.14697665    -0.16146148     0.80858113
O       3.86469301     0.90648698     0.76047602     0.07844310     0.44774647     0.03234012
O      -0.21363298     4.80862002     0.88654599     0.51956589    -2.05004313    -1.11926770
O      -0.09997698     0.94176903     0.87639801     0.35602593     1.33511292    -1.29728940
O       5.44936022     4.79796022     4.03218380     0.44041317    -0.07039812    -0.06645713
O       5.59150421     0.95652021     3.95236582     0.74522321     0.76628956     1.77331442
O       1.98450624     4.70222623     4.07088481     0.47179143     0.50327075    -0.50116296
O       1.81008423     0.87819621     4.06182979     0.18898952     0.74049444    -0.07218298
O       3.84931723     2.82881521     3.06510983    -2.17703639    -0.13577949     1.51612405
O       3.89053321    -0.58901778     3.11379583    -1.22728544    -1.36410983     0.45608225
O      -0.07874877     2.97870122     3.40591480     0.16866263    -0.28154027    -1.05031223
O       0.03388422    -0.99802178     3.16658582    -0.39690006     0.04642977     0.56802786
O       5.73282200     6.62781202     1.54195001    -0.39538028     0.03477753     0.94549628
O       5.69701803     2.73880702     1.69276399    -0.15580222     0.23649041    -0.70119126
O       1.94099300     6.75848298     1.57235399     0.12484767    -0.86406222     0.44843090
O       1.77699398     2.86734799     1.71212299     0.95951909    -0.21386110    -0.59195584
