# total energy = -19073.36786424 eV

CRYSTAL
PRIMVEC
        5.93400000     0.00000000     0.00000000
        0.00000000     9.29699974     0.00000000
        0.00000000     0.00000000     4.64899994
PRIMCOORD
22 1
Ti      4.42207302     6.82533701     2.47806202     0.41887683     0.85355463    -1.36292172
Ti      4.36476397     2.42111297     2.20526798     1.59281211    -0.08630271     0.29525120
Ti      1.48187400     7.25967897     2.58280599     1.11647137    -0.12455045    -0.55110151
Ti      1.59435401     2.29626397     2.03422201    -1.78852841     0.76540870     0.76273886
Ti      2.96805502     4.61639702     4.47741099     1.06032668     0.24086772     0.59666328
Ti      3.01519799     0.21303999     0.16939800     0.46049760    -1.49844796    -0.60454680
Ti      5.82787499     4.52203498     4.43045800    -0.26687778    -0.33775643     0.43898672
Ti      0.01292500     9.03031600     0.21182399    -1.62109606    -0.21568735    -0.69240219
O       4.50052900     5.52873903     0.86845998    -0.51974844    -0.36606378     0.66732107
O       4.46200903     0.75307802     1.13181801     1.81315162     0.69960360    -0.10704278
O       1.39330301     0.57175400     1.24536399     0.22827316     2.20902375     0.00211988
O       4.43705901     8.20271400     4.02128799    -0.17310190     1.71838638    -0.91728716
O       4.34460899     3.99912700     3.35862498     0.58761967    -0.88831930     0.22887377
O       1.61504299     8.56969700     3.78463801    -1.04401457     0.56660476     0.48890470
O       1.56433601     4.01422098     3.49953102    -1.14056467    -0.90897092    -0.28658375
O       2.97003801     6.17992301     3.33314298    -1.86319945    -0.59385769     0.45212532
O       2.92749501     1.63603598     3.14189001    -0.03245376    -1.42718030     2.29250184
O       0.09486100     6.21089401     3.46425601     0.27025698    -0.19293540    -0.72717586
O       3.02677100     7.99573003     1.65276698    -0.17100054    -1.09641264    -0.58517533
O       3.02708803     2.92324202     1.04085800    -0.59671778     1.92717957    -1.83623037
O       0.00829501     7.70113901     1.37984000     0.71768952    -1.04646354     1.34955944
O       5.81706802     3.13041301     1.12753501     0.95132781    -0.19768063     0.09542216
