# total energy = -4987.77675643 eV

CRYSTAL
PRIMVEC
        4.12019986     0.00000000     0.00000000
        1.01419388     3.99342681     0.00000000
       -2.56723439    -1.99674259     5.30050824
PRIMCOORD
6 1
Ti      0.76051162     2.99522303     1.32512697     0.00020235    -0.00020235     0.00000000
Ti      1.80664793    -0.99853866     3.97538092    -0.00020235     0.00020235    -0.00000000
O       0.25359167     0.99835102     0.86340942    -0.00072351    -0.00125316    -1.20521791
O       2.31356769     0.99833327     4.43709848     0.00072351     0.00125316     1.20521791
O      -0.25356223    -0.99832812     3.51366337    -0.00125316    -0.00072351    -1.20521791
O       2.82072159     2.99501234     1.78684453     0.00125316     0.00072351     1.20521791
