# total energy = -4989.76650078 eV

CRYSTAL
PRIMVEC
        3.79441662     0.00000000     0.00000000
        0.93400181     3.67766748     0.00000000
       -2.36424376    -1.83886061     4.88139828
PRIMCOORD
6 1
Ti      0.70037814     2.75839145     1.22034949     0.00050188    -0.00050188     0.00000000
Ti      1.66379670    -0.91958444     3.66104848    -0.00050188     0.00050188    -0.00000000
O       0.23354024     0.91941163     0.79513984    -0.00027614    -0.00009127    -0.56482555
O       2.13063443     0.91939529     4.08625813     0.00027614     0.00009127     0.56482555
O      -0.23351313    -0.91939054     3.23583882    -0.00009127    -0.00027614    -0.56482555
O       2.59768779     2.75819741     1.64555915     0.00009127     0.00027614     0.56482555
