# total energy = -19960.49203037 eV

CRYSTAL
PRIMVEC
        7.60600008     0.00000000     0.00000000
        0.00000000     7.60600008     0.00000000
       -1.89786986    -1.89786986     4.85670466
PRIMCOORD
24 1
Ti      3.82464000     6.65671701     1.16832198     0.98893252    -0.96483844    -1.75582808
Ti      3.80623802     2.65711698     1.23982002    -1.03098550     0.97164930    -0.67031281
Ti      0.03154002     6.73436900     1.24569002    -1.38356975    -0.58445696    -0.58085947
Ti     -0.09146400     2.81699503     1.34455599     0.42326133     0.46650062    -0.62826883
Ti      5.61550023     2.93704524     3.63627682     0.94188825    -0.44242197     1.53523943
Ti      5.62620522    -0.85762577     3.64107180     1.68391636     0.60930565    -0.15608325
Ti      2.02551022     2.78517422     3.69640681    -2.46123698     0.39305960     0.52221773
Ti      1.98864922    -0.91147479     3.53576479    -1.11510071    -0.62144281     0.67150323
O       3.85017000     4.62726103     0.84890900    -0.40199984     1.38224254    -0.38430319
O       4.15863499     0.86666898     0.60607200    -1.06935151    -0.76594683     0.67835548
O       7.31604598     4.76221800     0.73820502     1.02240804    -0.05550962     0.90301907
O      -0.20650798     1.00358402     0.79463399     0.34984731     0.06451852    -0.14888210
O       5.69602725     4.83157721     4.09026180    -0.01140259    -0.15095415    -0.47603633
O       5.55308922     0.99111623     4.04243481     0.26655588    -0.60682839     0.38852777
O       1.93530524     4.68513222     3.91571781    -0.13650840     0.37387890     0.39966117
O       2.12878424     0.85631923     4.21772382    -0.58059979     0.58147088    -1.97904260
O       3.71327322     2.84740922     3.21485281     1.64567041     0.05563407     0.12330167
O       3.87533921    -0.85323979     3.04318983    -1.88236394    -0.40906035     0.57909029
O      -0.13232776     2.74294022     3.32396583     0.86643740     0.40876879    -0.94342089
O       0.09464123    -0.78297976     3.22840584     0.00094462    -0.37939804    -0.16086627
O       5.73584598     6.73972401     1.62362503    -0.11345537    -0.53403966     0.39422714
O       5.59256600     2.74757300     1.66398098     1.31764844     0.39162184     0.59111689
O       1.88876500     6.86593803     1.41179601     1.32714609    -0.48031902     0.99782314
O       1.87824199     2.56608600     1.66229502    -0.64808202     0.29656580     0.09982080
