# total energy = -19517.75092158 eV

CRYSTAL
PRIMVEC
        5.17600016     0.00000000     0.00000000
        0.00000000     5.50899976     0.00000000
        0.00000000     0.00000000     9.26300011
PRIMCOORD
23 1
Ti      1.89566002     3.17259600     3.44889299    -0.30800233     0.25894001     1.71116569
Ti      3.37185298     2.25319302     5.89972202     0.98506121     0.59925572    -1.64673922
Ti      4.38332201     2.12792602     1.44723501     0.52487651    -0.08886121    -0.97534629
Ti      0.79807200     3.39563802     7.77737800    -0.92194960     0.72132429     0.38376249
Ti      1.98544399     0.19879501     1.33108399     1.14970803    -0.43357429    -1.52545381
Ti      3.31285999     5.19048501     7.88450898    -1.16471248    -0.41533307     1.01130755
Ti      0.79646299     0.52379499     5.90755802    -0.10971878     0.01230890    -2.53101469
Ti      4.48385299     4.94750798     3.39484902     0.82428544     0.04823597     2.47707884
O       1.75394201     1.97839900     4.89621002    -0.81391952    -0.78200080    -0.76233288
O       3.60252098     3.56500898     4.46706097    -0.17561284    -0.56582777     0.40254312
O       4.73271198     3.09834698     9.21396199     0.00737470     0.01059989     0.19891733
O       3.56842598     0.61514098     0.16404198     0.04214940     0.90871767     0.62604020
O       1.82463501     4.52924798     8.99010202    -0.31211687     0.03754943     1.14051659
O       4.22578700     0.76838701     4.86583498     0.24458399     0.38080649    -0.73693372
O       0.87438301     4.67152898     4.54175799     0.85129309     0.07023459    -0.23124613
O       0.20349998     3.38776402     2.55088401     0.04579316    -1.05290622    -0.69220448
O       5.12726299     1.88648700     6.97824399    -1.15549995     1.50172072    -0.48648709
O       2.63769501     1.92808800     2.13442601    -0.37964666     0.08819247    -0.07960447
O       2.42524998     3.70115999     6.78892898     0.40570635    -0.11468898     0.81854339
O       0.26689499     0.53760498     1.90988002    -0.67980404     0.87304077     0.43818248
O       4.98135199     4.93984100     7.09541399     0.59805476    -2.18747533     0.80633785
O       2.35637401     0.98388598     7.01743899     0.29292486    -0.37159371     0.42648729
O       2.80464599     4.58016901     2.47652201     0.04917185     0.50133445    -0.77352002
