# total energy = -39040.57063264 eV

CRYSTAL
PRIMVEC
        7.60629642    -0.00000847    -0.00005503
       -0.00000847     7.60629642    -0.00005503
       -3.80314186    -3.80314186     9.70738094
PRIMCOORD
46 1
Ti      1.90146404     4.75418521     6.12191952    -0.00017329    -0.00048234     0.23539075
Ti      3.77764017     6.65560311     1.22579059    -0.03026961     0.00024220     0.06135503
Ti      1.90147419     0.95103700     6.12192512    -0.00039261    -0.00048208     0.23546326
Ti      3.77764437     2.85246436     1.22581813    -0.03026961     0.00003831     0.06135503
Ti     -1.90159321     4.75382955     5.89978580    -0.00090657    -0.00020029    -0.00087983
Ti      0.02526535     6.65564132     1.22575148     0.03063136     0.00054147     0.06107169
Ti     -1.90159693     0.95068130     5.89984076    -0.00082610    -0.00020080    -0.00091891
Ti      0.02526945     2.85251868     1.22577911     0.03063162     0.00008099     0.06107144
Ti      3.74391619     0.95077774     8.53295342    -0.01581203     0.00003522    -0.08201796
Ti      5.70490000     2.85235918     3.56587907    -0.00017818     0.00013627     0.04068669
Ti      3.74394976    -2.85237043     8.53300303    -0.01613753     0.00003522    -0.08234578
Ti      5.70490439    -0.95077614     3.56590647    -0.00017869     0.00003265     0.04068721
Ti      0.05910419     0.95077492     8.53307826     0.01781827     0.00010567    -0.08274867
Ti      1.90174436     2.85222097     3.67077272    -0.00050239     0.00007662     0.09619812
Ti      0.05908243    -2.85237328     8.53311153     0.01843944     0.00010490    -0.08293533
Ti      1.90174868    -0.95093327     3.67080027    -0.00050265     0.00013781     0.09619735
O       1.90157792     2.85230807     5.73409822     0.00006222     0.00016275     0.00650284
O       3.77522188     4.75393134     0.79773717     0.01015123     0.00007148    -0.04929604
O       1.90158216    -0.95082290     5.73412573     0.00006248    -0.00034504     0.00650309
O       3.77524198     0.95078314     0.79775376     0.01008901     0.00007148    -0.04905641
O      -1.90148218     2.85230213     5.55623903    -0.00020672    -0.00003780     0.07207782
O       0.02787804     4.75394082     0.79766415    -0.01029959     0.00013164    -0.04906181
O      -1.90147795    -0.95084513     5.55626647    -0.00020672     0.00006916     0.07207808
O       0.02788714     0.95079265     0.79771213    -0.01026308     0.00013138    -0.04949221
O       4.04598402     2.85234505     8.86883785    -0.00247546     0.00026097     0.04713991
O       5.70468022     4.75392057     3.96572266    -0.00000746    -0.00007482    -0.07975411
O       4.04598817    -0.95078161     8.86886530    -0.00247520    -0.00011441     0.04714042
O       5.70467021     0.95077234     3.96579051     0.00002545    -0.00007508    -0.07998191
O      -0.24276910     2.85235447     8.86887296     0.00132823    -0.00022291     0.04745281
O       1.90157767     4.75389976     4.12364603    -0.00000129    -0.00004114     0.05411326
O      -0.24276482    -0.95079193     8.86890046     0.00132772     0.00038052     0.04745333
O       1.90158415     0.95075157     4.12368734     0.00001260    -0.00004165     0.05397750
O       1.90150509     0.95081662     8.14294472     0.00126858     0.00009385    -0.04310739
O       3.79816284     2.85238473     3.21386973     0.00217438    -0.00005451    -0.06277222
O       1.90151853    -2.85233179     8.14297894     0.00135986     0.00009436    -0.04330331
O       3.79816709    -0.95074700     3.21389711     0.00217515    -0.00011493    -0.06277094
O       0.00503056     2.85239704     3.21389138    -0.00237056    -0.00004165    -0.06309104
O       0.00503489    -0.95073038     3.21391883    -0.00237133    -0.00011133    -0.06309027
O       3.91120404     4.75382908     6.55321574     0.00445881    -0.00009307    -0.04380647
O       5.70473040     6.65550563     1.56265188     0.00031625    -0.00009385    -0.03244631
O       3.91118606     0.95068080     6.55327954     0.00472055    -0.00009333    -0.04438343
O       5.70473459     2.85233267     1.56267948     0.00031573     0.00011904    -0.03244682
O      -0.10801689     4.75384946     6.55320044    -0.00504065    -0.00014938    -0.04461740
O       1.90155259     6.65547776     1.68719191    -0.00018332    -0.00003600    -0.08755689
O      -0.10801711     0.95070112     6.55324515    -0.00513372    -0.00014938    -0.04447727
O       1.90155686     2.85231079     1.68721948    -0.00018461     0.00010259    -0.08755689
