# total energy = -39033.65021719 eV

CRYSTAL
PRIMVEC
        5.93200024     0.00000000     0.00000000
        0.00000000     9.29399984     0.00000000
        0.00000000     0.00000000     9.29399984
PRIMCOORD
46 1
Ti      4.43885202     7.06305798     6.80226102    -0.36124784     1.28920405     0.44438758
Ti      4.48150698     6.79328400     2.37491199     0.89379215     0.56898817     0.67132788
Ti      4.47314000     2.12123003     7.18047199    -1.03224971    -0.09284206    -1.14327770
Ti      4.33576898     2.64914598     1.94578702    -0.37509632    -1.78971369     1.46444614
Ti      1.49340900     6.80735101     7.19661401     1.47590992     0.64964319    -1.39736295
Ti      1.51930001     7.17394501     2.17123299     0.05235642    -0.23472304     0.32411956
Ti      1.48978102     2.33581902     6.63609402     0.74769327     2.19784690     2.24634538
Ti      1.38105801     2.09464400     2.65471002     1.21556712    -0.27708995    -0.81493613
Ti      2.88999900     4.72431600     4.64907398     0.45356282    -0.66383234     0.20446577
Ti      2.93472702     4.69825698     9.03362600    -0.81019347    -0.42615434     0.78888802
Ti      2.96532701     9.22814399     4.62420000     2.52424086    -0.58215891    -1.00799108
Ti      2.92414601     9.27977301     0.02911401     0.28851413     0.88143414     0.01383640
Ti      5.86897899     4.68260402     4.73187900     0.04314724    -0.43121555    -0.73199077
Ti      5.91897301     4.79192897     9.12702002     1.26371876    -0.46626947     1.05499292
Ti      0.07335100     9.16154900     4.92737798    -3.11165870    -1.40918283    -1.25332070
Ti      5.90681601     9.28074998     9.24443498    -0.18770808     0.27178833     0.64597500
O       4.55749398     5.69484501     5.52223099    -1.52053683     0.17780573     0.97749933
O       4.45305402     5.34335802     1.00710998     0.16946919     0.12377604     0.38318759
O       4.41408202     0.64576500     5.84068198     0.21906501     0.91585068    -1.11662872
O       4.63345700     1.07020998     0.81766098    -1.47198744     0.93991647     0.32463378
O       1.53507197     5.43165098     5.89263300    -0.04927161     0.65736190    -1.23115392
O       1.57952599     5.52837701     0.77137602    -0.78144442     0.48083452     1.02586566
O       1.43861000     1.05971200     5.33767598     1.17180770    -0.19735024    -1.34702896
O       1.34832199     0.90248100     0.93885400     0.86013100     0.53188174     1.17593483
O       4.38273700     8.52369800     8.26816799     0.33160764    -0.63231395     0.72212519
O       4.63797300     8.37075900     3.81386400    -1.03574770     0.39395074     0.30889990
O       4.47968598     3.69904598     8.42236998     0.47385346    -1.02097079     0.41371636
O       4.33272901     3.87836599     3.80276498     0.25245363    -0.55118353    -0.99894980
O       1.50664198     8.33220500     8.57956901     0.19155137    -1.26084735    -0.90581463
O       1.44731200     8.29574400     3.76436402     0.44027844     1.50360483     0.03135641
O       1.50366800     4.09253599     8.02152498    -0.77179480    -1.79814614     1.16145412
O       1.49517900     3.67670200     4.04110800     0.34915157    -0.66363385    -1.55131192
O       3.15853798     6.14813999     8.02119599     0.52088384     1.31912553    -1.39628128
O       2.85722398     6.17804501     3.09458802     0.20114879    -1.44755296     1.54224466
O       2.80874801     1.26634503     7.89981898     0.44700830     2.13845003    -0.98109451
O       3.21254798     1.38475801     3.01898399    -0.62790631     1.01876607     0.45768816
O       5.87256999     6.19906102     7.97031100    -1.46603765    -0.10294418     0.39636912
O       0.01081601     6.00728999     3.35495302     0.17700535     0.65273777    -1.44796922
O       0.10818500     1.25133100     7.80536200     0.31035438     1.53167357    -0.91863930
O       2.91752600     7.87314400     6.06184198    -0.73658071    -0.32816750     0.11607198
O       3.04827099     8.14210998     1.58151199    -0.21551586    -1.27155291    -0.27951090
O       3.09382299     3.25757102     6.13034799    -0.26683407    -1.06279365     0.09605774
O       0.20128601     7.74608198     6.01412501     0.03603120    -0.22186983     1.48949821
O       5.83129400     7.87457998     1.48264601     0.04073015    -0.48312615    -0.66378606
O       5.83679199     3.24361302     5.99242800    -0.13212261    -1.66260962     1.47017970
O       0.17939998     3.12002801     1.75430799    -0.19709930     0.83360338    -0.76451909
