# total energy = -19939.40526822 eV

CRYSTAL
PRIMVEC
        4.65817725     0.00000000     0.00000000
        0.00002553     4.95770925     0.00000000
        0.00000000     0.00000000     8.33711301
PRIMCOORD
24 1
Ti      1.68838034     2.93793392     3.09300952    -0.08620449     1.14147972    -1.42300457
Ti      2.96982245     2.01977538     5.24410373     0.08620449    -1.14147972     1.42300457
Ti      4.01738742     2.01977709     1.07551379    -0.08213881    -1.14117942     1.43031088
Ti      0.64081537     2.93793240     7.26159956     0.08213881     1.14117942    -1.43031088
Ti      1.68836767     0.45907939     1.07554722    -0.08676525     1.14094802     1.42986865
Ti      2.96983512     4.49863006     7.26156613     0.08676525    -1.14094802    -1.42986865
Ti      0.64080270     0.45907754     5.24407029     0.08175185     1.14048214     1.42365866
Ti      4.01740009     4.49863190     3.09304296    -0.08175185    -1.14048214    -1.42365866
O       1.47435150     1.74569375     4.25436504    -2.56472881    -2.22431051    -0.34494010
O       3.18385128     3.21201559     4.08274821     2.56472881     2.22431051     0.34494010
O       0.85478234     1.74571372     0.08583525     2.56485556    -2.22427168    -0.34473673
O       3.80342049     3.21199563     8.25127776    -2.56485556     2.22427168     0.34473673
O       3.18383861     0.73316092     0.08580820     2.56502320     2.22328258    -0.34579705
O       1.47436417     4.22454838     8.25130481    -2.56502320    -2.22328258     0.34579705
O       3.80340782     0.73314095     4.25439209    -2.56419067     2.22478488    -0.34405050
O       0.85479492     4.22456839     4.08272116     2.56419067    -2.22478488     0.34405050
O       0.16925787     3.01555982     2.25206227    -0.92146803     0.54944238    -0.62287774
O       4.48894492     1.94214948     6.08505098     0.92146803    -0.54944238     0.62287774
O       2.49835023     1.94210328     1.91652086    -0.92255278    -0.54828975     0.62436435
O       2.15985256     3.01560602     6.42059225     0.92255278     0.54828975    -0.62436435
O       0.16924519     0.53670514     1.91649424    -0.92262837     0.54772822     0.62397509
O       4.48895759     4.42100416     6.42061887     0.92262837    -0.54772822    -0.62397509
O       2.15983989     0.53675135     6.08507756     0.92172668     0.54976479     0.62341716
O       2.49836290     4.42095795     2.25203565    -0.92172668    -0.54976479    -0.62341716
