# total energy = -4988.72343926 eV

CRYSTAL
PRIMVEC
        3.76441992     0.00000000     0.00000000
        1.27838871     3.54070327     0.00000000
       -2.52143865    -1.77037575     4.88182706
PRIMCOORD
6 1
Ti      0.95868300     2.65566326     1.22045682     0.00069188    -0.00069188     0.00000000
Ti      1.56268632    -0.88533620     3.66137035    -0.00069188     0.00069188     0.00000000
O       0.31963639     0.88517094     0.79520979    -0.00016506    -0.00001568    -1.17167966
O       2.20173275     0.88515599     4.08661748     0.00016506     0.00001568     1.17167966
O      -0.31960586    -0.88514955     3.23612332    -0.00001568    -0.00016506    -1.17167966
O       2.84097494     2.65547645     1.64570395     0.00001568     0.00016506     1.17167966
