# total energy = -4984.97872299 eV

CRYSTAL
PRIMVEC
        2.80363790     0.00000000     0.00000000
        0.00000000     3.97451099     0.00000000
        0.00000000    -0.00005437     4.19418094
PRIMCOORD
6 1
Ti      1.40181895     1.98722817     2.09709047     0.00000000     0.00000000     0.00000000
Ti      0.00000000     0.00000000     0.00000000     0.00000000     0.00000000     0.00000000
O       1.40181895     0.77456300     0.81738408     0.00000000     0.70797332     0.55966612
O       1.40181895     3.19989329     3.37679681     0.00000000    -0.70797332    -0.55966612
O       0.00000000     1.21264315     2.91447540     0.00000000    -0.70854333     0.56020939
O       0.00000000     2.76181320     1.27970549     0.00000000     0.70854333    -0.56020939
