# total energy = -19961.65344813 eV

CRYSTAL
PRIMVEC
        7.60600008     0.00000000     0.00000000
        0.00000000     7.60600008     0.00000000
       -1.89786986    -1.89786986     4.85670466
PRIMCOORD
24 1
Ti      3.81856399     6.55153699     1.19906098     0.04550571    -0.03385064     0.48922378
Ti      3.80377899     2.74684300     1.26329998     0.50653579     0.07210970    -0.96015518
Ti      0.06659002     6.74931900     1.18844601    -0.37196652     0.34894434    -0.23985496
Ti      0.02595498     2.88965000     1.22434698    -1.27191569    -0.09715637    -0.51267945
Ti      5.70109825     2.90972022     3.67793784    -0.12637954    -0.39508151    -0.38192466
Ti      5.70947121    -0.88475579     3.57876780    -0.13907591     0.63459837     0.24906363
Ti      1.87212724     2.83671122     3.60657580    -0.01549013    -1.37952360     1.00928666
Ti      1.86331925    -1.02130077     3.61734783     0.11422439     1.22755463     0.59806556
O       3.83000999     4.62093699     0.84174701    -0.11430306     1.59903341    -0.54080270
O       3.80588099     0.89322802     0.78789301     0.04280374    -0.38983903     0.12002840
O      -0.03758201     4.79801102     0.76262702     0.08310554     0.23522337     0.37881825
O       0.04448698     1.03759001     0.71820302    -0.41893493    -0.17326799     0.85580743
O       5.86051924     4.94081622     4.07063482    -0.50411638    -2.24961480     0.03585122
O       5.60554021     1.03731822     4.02654880     0.01042043     0.00931151     0.34885538
O       1.74002222     4.73931224     4.10245584     0.34644625    -0.90786072    -0.26178854
O       1.94840322     0.90419024     4.06904681    -0.19714018     0.27252675    -0.10461154
O       3.74011622     2.87325122     3.20964682    -0.11128561     0.47607978     0.43458267
O       3.72672925    -1.02615777     3.23715880     0.85568710     0.01160288    -0.80614810
O      -0.02959678     2.85654621     3.27056682     0.06887422     0.09828765    -0.39888778
O      -0.03547578    -0.75847975     3.30245583     1.22592507    -0.15537645    -1.12034499
O       5.79540599     6.65555202     1.61766300    -1.36910034    -0.02128206    -0.25875823
O       5.64867700     2.82886299     1.71436400     0.76528066    -0.02371921    -0.35051811
O       1.91388298     6.52004402     1.53972598    -0.33514882     0.23161329     0.88746389
O       1.81289400     2.69775499     1.61046402     0.91004847     0.60968720     0.52942762
