# total energy = -19938.67541246 eV

CRYSTAL
PRIMVEC
        6.24972133     0.00000000     0.00000000
        0.00003110     6.01810818     0.00000000
        0.00000000     0.00000000    10.67967682
PRIMCOORD
24 1
Ti      2.26524185     3.56632528     3.96208402     0.17008214    -0.72251111     0.60504225
Ti      3.98451058     2.45178278     6.71759316    -0.17008214     0.72251111    -0.60504225
Ti      5.38999360     2.45178485     1.37771191     0.17068686     0.72251882    -0.60502116
Ti      0.85975889     3.56632351     9.30196546    -0.17068686    -0.72251882     0.60502116
Ti      2.26522636     0.55727131     1.37775475     0.17008214    -0.72251111    -0.60504225
Ti      3.98452613     5.46083693     9.30192262    -0.17008214     0.72251111     0.60504225
Ti      0.85974334     0.55726912     6.71755038    -0.17068686    -0.72251882    -0.60502116
Ti      5.39000909     5.46083918     3.96212687     0.17068686     0.72251882     0.60502116
O       1.97808723     2.11907812     5.44975747     1.10935712     1.19811652    -0.32016803
O       4.27166526     3.89902993     5.22991971    -1.10935712    -1.19811652     0.32016803
O       1.14683196     2.11910246     0.10995326    -1.10906119     1.19816383    -0.32087482
O       5.10292060     3.89900566    10.56972368     1.10906119    -1.19816383     0.32087482
O       4.27164971     0.88997578     0.10991864    -1.10935712    -1.19811652    -0.32016803
O       1.97810278     5.12813227    10.56975831     1.10935712     1.19811652     0.32016803
O       5.10290504     0.88995151     5.44979216     1.10906119    -1.19816383    -0.32087482
O       1.14684733     5.12815661     5.22988509    -1.10906119     1.19816383     0.32087482
O       0.22708585     3.66055456     2.88484722    -0.11117788    -0.13116025     0.15573280
O       6.02266664     2.35755355     7.79482997     0.11117788     0.13116025    -0.15573280
O       3.35195206     2.35749754     2.45502534    -0.11099199     0.13130963    -0.15588553
O       2.89780038     3.66061057     8.22465173     0.11099199    -0.13130963     0.15588553
O       0.22707030     0.65150041     2.45499120    -0.11117788    -0.13116025    -0.15573280
O       6.02268213     5.36660770     8.22468581     0.11117788     0.13116025     0.15573280
O       2.89778489     0.65155643     7.79486405     0.11099199    -0.13130963    -0.15588553
O       3.35196761     5.36655163     2.88481314    -0.11099199     0.13130963     0.15588553
