# total energy = -39035.83901958 eV

CRYSTAL
PRIMVEC
        7.60600008     0.00000000     0.00000000
        0.00000000     7.60600008     0.00000000
       -3.79573973    -3.79573973     9.71340985
PRIMCOORD
46 1
Ti      1.93293643     4.66779447     6.10885562    -0.12940264     1.59504769     0.03479681
Ti      3.77354101     6.78003600     1.32559801    -0.68764025     0.81918848    -0.21888041
Ti      2.03078845     0.98480643     6.00250660    -0.51458129    -1.89862901     0.24020360
Ti      3.82129597     2.85000500     1.20452299     0.57987654    -0.99934189    -0.12085166
Ti     -1.90467657     4.78131945     6.09155163     0.43838559     1.26000582     0.40970621
Ti     -0.00222403     6.67260899     1.14656099     0.52566429    -0.17722595     0.76684646
Ti     -1.86914554     0.99101447     6.03355862     0.02460598    -0.66676237    -0.61688141
Ti     -0.07972902     2.85276201     1.28196898    -0.07524696     0.21998290    -1.11894965
Ti      3.79034747     1.01015344     8.45520961    -0.41765015    -0.90377086     0.56685852
Ti      5.65837898     2.88761299     3.73234303     0.68058514    -0.59094540    -0.74402431
Ti      3.78156947    -2.77205354     8.53392065     0.20240169     0.95425038    -0.08669506
Ti      5.66168200    -0.91078300     3.64412299     0.82963359     0.24012878     0.67566096
Ti      0.02144946     0.84485847     8.26409264     0.11604241     0.20624523    -0.48691056
Ti      1.93258299     2.76119201     3.37488400    -0.80578634     0.06472832     2.37179701
Ti     -0.02217057    -2.96548253     8.50953664     0.23808013     0.64175376     0.27858942
Ti      1.80812400    -0.97835100     3.77625701     0.05437911    -0.35079862     1.29017207
O       1.96327945    -0.98990055     5.74658960    -0.47459985    -0.32967623    -1.36890597
O       3.80748000     1.04086498     1.07294900    -0.15801132    -2.53462323    -1.70706555
O      -2.08729458     2.96672943     5.71696462     0.42326981    -2.08581258    -0.52549023
O      -0.03250699     4.75982998     0.80231500     0.33644414     0.40331008    -0.47902986
O      -1.77149853    -0.86889555     5.72458361    -0.69181290    -1.12576282    -1.30332481
O       0.20897199     0.96375502     0.84946898    -0.72280242    -0.40176973    -1.13775368
O       3.53904045     2.91534246     8.83003665     0.65272543    -0.29630612     0.44311951
O       5.97684002     4.68708298     4.16081700    -0.86655850     1.75310091    -1.10607382
O       3.54004943    -0.90161654     8.97736663     1.02425872    -0.40042530    -0.55170649
O       5.82201599     0.96320399     4.01744701    -0.65661860     0.03808551     0.20647329
O       0.01898847     2.56733947     9.09363762     0.05001157     1.18252277     0.11867625
O       1.97560002     4.56144498     4.26542698    -0.27279775    -0.67896355    -1.84541049
O      -0.06987457    -0.87371953     9.04382463     0.02148903     0.65756785    -1.01827679
O       1.89640399     0.90326799     4.08804602     0.07076887     1.83646716    -0.64172110
O       1.88631046     0.81305343     7.99194562     0.07512972     1.02166524    -0.16431798
O       3.82037298     2.66985200     3.14085298     0.54288966     1.18271149     1.08944958
O       1.80019544    -2.75932455     8.07776261     1.08597936    -0.60184894     1.08510287
O       3.63721400    -0.86378698     3.34776600     2.81457739    -0.78281970    -0.81730206
O      -1.97797857     1.15496845     7.93918765     1.08746211    -0.34909012     0.94627739
O      -0.02047202     2.77595400     3.21795601     0.05513733     0.28801843    -0.10544664
O      -1.87785257    -2.59421654     8.11243361    -0.59218287    -1.02059875     0.31876729
O       0.05150398    -0.85335700     3.18709202    -1.04198391    -0.54976351    -0.22212386
O       3.85227745     4.84674147     6.43227261    -0.91473148    -0.45851682     1.17129733
O       5.71876700     6.58709802     1.62715998    -0.98870086    -0.02184410     0.91125612
O       3.86189043     0.74725844     6.40503660    -1.03359877     0.96135717     0.17116226
O       5.70667398     2.67217101     1.48672798    -0.45006689     1.22440400     1.03177251
O       0.02525647     4.79414543     6.55197161    -0.42728357    -1.11569026     0.02243725
O       1.91450799     6.61370701     1.50749702     0.01821962    -0.64896468     0.26761723
O       0.05122446     0.77259042     6.25012663    -0.16762879     1.45564216     1.65423682
O       1.90195199     2.79903401     1.49375800     0.14166912     0.98376588     0.31486461
