# total energy = -19075.92574037 eV

CRYSTAL
PRIMVEC
        7.60600008     0.00000000     0.00000000
        0.00000000     7.60600008     0.00000000
       -1.89786986    -1.89786986     4.85670466
PRIMCOORD
22 1
Ti      3.81522700     6.62878502     1.11869499     0.73959790    -0.06652783     0.19649637
Ti      3.73378202     2.80094201     1.24676801     0.96531513     0.31430102    -0.32049121
Ti      0.08229902     6.67270297     1.06334099    -0.95463862     0.70825125     1.10736914
Ti      0.01979901     2.93197699     1.12574501    -0.98214635    -1.68534383     0.48377381
Ti      5.68151525     2.84734324     3.52635279    -0.41216213    -0.40963705    -0.06711353
Ti      6.02964022    -0.86207578     3.69005880     0.27738305    -0.28350588     0.11880635
Ti      1.88851121     2.78467621     3.67413781     0.39797246    -0.49071502     0.42453943
Ti      1.45774923    -0.98021777     3.74344183     1.53797920     0.92936312    -0.32102420
O       3.95256300     4.73023400     0.96430600    -0.84066543     0.64804319    -0.68972439
O       3.81336498     0.88892898     0.74489202    -0.66346930     0.52955515     1.41694653
O      -0.07978199     4.72065801     0.72457198     0.27683258     0.66039426     0.23153770
O       0.00564701     0.96626702     0.75100502     0.27117744     0.86716426     0.90802836
O       5.64592924     4.87283721     4.09769483     0.21706058    -1.42297552    -2.29000530
O       5.50194022     0.93413824     3.91452880     0.57301015     0.18112683     1.14796662
O       2.11867923     4.80954825     4.08983380    -1.09344327    -0.79647483    -0.46850196
O       2.18623024     0.92919022     4.17670179    -1.61731242    -0.57681024    -0.94447170
O       3.74812722     2.77111822     3.21757480     0.39233043     0.54868210     0.37066065
O      -0.04178479     2.63143622     3.25111982     0.57913915     0.89519623    -0.00828435
O       5.81935301     6.71093301     1.85566301    -0.68841236    -0.27079871    -1.08629432
O       5.62933001     2.69710002     1.63002500     1.31918956     0.60918378     0.13990277
O       1.85331801     6.80349299     1.80174598     0.53495549    -0.92866764     0.48749291
O       1.87687402     2.92234998     1.73320499    -0.82969376     0.04019510    -0.83760967
