# total energy = -19516.77200399 eV

CRYSTAL
PRIMVEC
        5.93400000     0.00000000     0.00000000
        0.00000000     9.29699974     0.00000000
        0.00000000     0.00000000     4.64899994
PRIMCOORD
23 1
Ti      4.49555601     6.91984500     2.39608501    -0.49468763     0.14471254     0.20456270
Ti      4.44682201     2.38408898     2.32322899     0.34818509     1.00779517    -0.76731517
Ti      1.38661199     7.04277398     2.22081102     0.81954432    -0.44753898    -0.86885373
Ti      1.45712798     2.31694602     2.43476802    -1.45921137     1.68935913    -0.55500008
Ti      2.99864501     4.73216899     0.03253202     0.45524767    -1.39957384     1.17710366
Ti      2.91421902     0.06663199     0.04319102     2.27633500    -0.78741272     0.10639203
Ti      0.04627401     4.67886502     0.04620897    -0.11560687    -0.82906461    -0.48507504
Ti      0.03500502     9.18982299     4.49989002    -1.74950137     0.27645026     0.11322808
O       4.60582400     5.69515400     0.81951500    -1.91142642    -0.13556378    -0.00320334
O       4.38361702     0.93410998     0.76693299    -0.22659243    -0.15797301     0.54208054
O       1.52182402     5.49652901     1.02424400     0.38516991     0.70384901    -0.92550852
O       1.43180102     0.77772302     0.78146002    -0.19528641     1.02518946     1.15373618
O       4.44029101     8.33349101     3.74540301    -0.54634317    -0.59191393     0.06372790
O       4.53734000     3.65970599     3.84377500    -0.91597512     0.62084502    -1.29834844
O       1.41546702     8.14592799     3.73806301     0.49013883     1.47596366     1.12252040
O       1.42880001     3.65154898     3.85541298     1.47872682     0.21655330    -1.51646806
O       2.90836700     1.52860199     3.17036001     0.87895560    -1.54222872     0.41308541
O       0.13045299     5.96821999     3.17578800    -0.99977409    -0.44318996     0.56993176
O       5.85514503     1.38321202     3.15570202     1.00739562    -0.62662281     0.09789736
O       2.96634901     7.85149102     1.49490298     0.04981334    -0.30991112     0.02603963
O       3.06621999     3.48532398     1.37539798    -0.15512268    -1.69334871     1.19318463
O       5.78240400     7.82721501     1.55989102     1.06333616     1.92907602    -1.97575262
O       0.08323201     3.14476101     1.28024201    -0.48332052    -0.12545111     1.61203394
