# total energy = -19937.87821433 eV

CRYSTAL
PRIMVEC
        5.83824892     0.00000000     0.00000000
        0.00002298     4.14244151     0.00000000
        0.00000000     0.00000000     9.07047036
PRIMCOORD
24 1
Ti      2.11609814     2.45480699     3.36507981    -0.43390544     2.38471964    -3.92654315
Ti      3.72217386     1.68763452     5.70539065     0.43390544    -2.38471964     3.92654315
Ti      5.03512196     1.68763597     1.17011916    -0.43148655    -2.38543055     3.92906875
Ti      0.80315004     2.45480574     7.90035135     0.43148655     2.38543055    -3.92906875
Ti      2.11608665     0.38358633     1.17015552    -0.43390544     2.38471964     3.92654315
Ti      3.72218535     3.75885533     7.90031499     0.43390544    -2.38471964    -3.92654315
Ti      0.80313855     0.38358479     5.70535424     0.43148655     2.38543055     3.92906875
Ti      5.03513345     3.75885687     3.36511617    -0.43148655    -2.38543055    -3.92906875
O       1.84785078     1.45862409     4.62859161     1.75109854    -2.42428559     3.28009045
O       3.99042122     2.68381746     4.44187885    -1.75109854     2.42428559    -3.28009045
O       1.07132411     1.45864079     0.09338558    -1.75172717    -2.42539810     3.28098262
O       4.76694799     2.68380077     8.97708458     1.75172717     2.42539810    -3.28098262
O       3.99040978     0.61259666     0.09335613    -1.75109854     2.42428559     3.28009045
O       1.84786222     3.52984485     8.97711403     1.75109854    -2.42428559    -3.28009045
O       4.76693650     0.61258002     4.62862101     1.75172717     2.42539810     3.28098262
O       1.07133545     3.52986159     4.44184940    -1.75172717    -2.42539810    -3.28098262
O       0.21213118     2.51966775     2.45016035     2.03351915    -0.60733542     1.67142516
O       5.62614082     1.62277381     6.62031011    -2.03351915     0.60733542    -1.67142516
O       3.13126217     1.62273518     2.08510373     2.03532356     0.60801547    -1.67110815
O       2.70700983     2.51970637     6.98536658    -2.03532356    -0.60801547     1.67110815
O       0.21211969     0.44844694     2.08507473     2.03351915    -0.60733542    -1.67142516
O       5.62615231     3.69399457     6.98539553    -2.03351915     0.60733542     1.67142516
O       2.70699839     0.44848557     6.62033901    -2.03532356    -0.60801547    -1.67110815
O       3.13127361     3.69395599     2.45013140     2.03532356     0.60801547     1.67110815
