# total energy = -19519.21038998 eV

CRYSTAL
PRIMVEC
        7.60600008     0.00000000     0.00000000
        0.00000000     7.60600008     0.00000000
       -1.89786986    -1.89786986     4.85670466
PRIMCOORD
23 1
Ti      3.80589300     6.67401798     1.24903299     0.08295847    -0.84329181     0.23411548
Ti      3.70261200     2.76679002     1.20691302     0.61225342     0.67883088     1.42488713
Ti     -0.00304399     6.68545001     1.17484398    -0.08621041     0.28243193    -0.77760421
Ti     -0.01602402     2.90786301     1.07387500    -0.39720705    -0.38305132     1.30316541
Ti      5.65883625     2.87740225     3.58115481    -0.99410841     1.48644939     0.06955814
Ti      5.74923422    -0.85682978     3.59484283    -0.52152842    -1.29604448     0.41105090
Ti      1.91761521     2.77667823     3.76016283     1.20335000     0.20105057    -0.51916660
Ti      1.88560422    -1.03348280     3.64913181     0.73774644     0.09815164    -0.17776768
O       3.92197300     4.66464899     0.79208002    -0.94218496     0.34465676     1.06952609
O       3.93726400     0.90202803     0.79930398    -0.67000428     0.36683305     0.38209641
O      -0.10446398     4.77250399     0.78372098     0.59408394     0.59346842    -0.02453450
O      -0.14549300     0.95111398     0.73818099     0.55032298     0.67255044    -0.22943299
O       5.77665322     4.81105624     4.04280883     0.48159325    -0.88977300    -0.25724308
O       5.79336422     1.04644722     4.04528983     0.35706234    -0.87305440    -1.12529540
O       1.93860122     4.70326824     4.14281079    -0.78443949    -0.00907960    -0.59031805
O       1.98490021     0.89037221     4.12546484    -0.70548654    -0.17102779    -0.45610513
O       3.78174521     2.80546722     3.27247683     0.24109346    -0.05461719    -0.84583258
O       3.79629621    -1.07575575     3.28848783     0.24860083     0.61153069    -1.06506420
O       0.04682425    -0.84693575     3.28923783    -0.63776829    -0.28372057    -0.43520488
O       5.71476499     6.71065800     1.56540600    -0.15964603    -0.23157189     1.15545188
O       5.76700002     2.89492299     1.63330500    -0.06825227    -0.20972599     0.64068546
O       1.86369602     6.68130703     1.57785601     0.77629398    -0.17167699     0.62260315
O       1.77942798     2.79864300     1.76734602     0.08147726     0.08068176    -0.80957127
