# total energy = -4986.44036109 eV

CRYSTAL
PRIMVEC
        3.17684554     0.00000000     0.00000000
        1.91447726     4.59474510     0.00000000
       -0.00001220    -0.00006613     5.08435214
PRIMCOORD
6 1
Ti      2.54565521     2.29733933     2.54217601     0.00000000     0.00000000     0.00000000
Ti      0.00000000     0.00000000     0.00000000     0.00000000     0.00000000     0.00000000
O       1.96152373     0.89543515     0.99086532    -0.73058849     0.65716444     0.32113116
O       3.12978669     3.69924352     4.09348665     0.73058849    -0.65716444    -0.32113116
O       0.58412625     1.40187749     3.53304245     0.73045222    -0.65676463     0.32062902
O       1.33033878     3.19280137     1.55130958    -0.73045222     0.65676463    -0.32062902
