# total energy = -19516.93246007 eV

CRYSTAL
PRIMVEC
        5.17600016     0.00000000     0.00000000
        0.00000000     5.50899976     0.00000000
        0.00000000     0.00000000     9.26300011
PRIMCOORD
23 1
Ti      1.84199198     3.22904900     3.36407498     0.36481473    -0.93822854     3.16603447
Ti      3.32807299     2.22500401     5.85022701     0.88790561     1.00488468    -2.62635509
Ti      4.32828001     2.15719101     1.58805802     0.88152644    -1.08365842    -2.14546374
Ti      0.80469598     3.33492498     7.79877200     0.22179295     0.51840607     0.47662357
Ti      2.03454000     0.23592600     1.28584500    -1.35427716    -0.30447143    -2.37340035
Ti      3.28242002     5.21962098     7.88492200    -0.44593410    -0.31341553     0.29338046
Ti      0.81500499     0.53986298     5.93841202    -1.23269530    -0.23011022    -3.07942477
Ti      4.49967798     4.94401198     3.37433303     0.39441586     0.90773731     3.74723152
O       1.75265701     1.91160000     4.80334502    -0.74344581    -0.39091581    -0.94198441
O       3.49847499     3.50009502     4.37148299     0.27575272     0.05729577     0.29631281
O       5.04786502     2.60488999     9.21723702     0.45002678     1.03904514    -0.01788537
O       3.67274301     0.57661000     0.18577000    -0.95927843    -0.24920272     0.54531550
O       1.74194398     4.56262901     8.98455201     0.57456798     0.71119362     1.13047720
O       4.32203000     0.65654799     4.92113300    -1.16913349     0.48406357    -0.72290835
O       0.94776402     4.71493501     4.53158800     0.56203076    -0.84363248    -0.55173555
O       0.06797202     3.39399101     2.57069598     1.17955006     0.55032375    -0.57812227
O       5.08494802     2.19815102     6.63019501    -0.09327657    -0.11423518     0.13031924
O       2.58937599     1.75014898     2.14341102    -0.64280200     2.50191339     0.80088890
O       2.59984698     3.63967202     6.86955098    -0.44988923     0.40358081     0.97516580
O       0.17958498     0.80975100     2.23024800     0.78198666    -1.40673437    -0.38950248
O       5.06633802     4.90877999     7.21387101    -0.40960542    -0.56650037     0.65317512
O       2.32407499     1.08319302     7.01952701     0.20891815    -1.06948958     1.49640342
O       2.76753701     4.63371402     2.41780398     0.71704906    -0.66784944    -0.28454512
