# total energy = -4988.00844350 eV

CRYSTAL
PRIMVEC
        4.35270290     0.00000000     0.00000000
       -0.00000879     3.93816020     0.00000000
       -2.17638216    -1.96911963     5.30375217
PRIMCOORD
6 1
Ti     -0.00019027     2.95376813     1.32593778    -0.00167070     0.00001543     1.35936974
Ti      2.17650187    -0.98472744     3.97781375     0.00167070    -0.00001543    -1.35936974
O       0.00004422     0.98453263     0.86393780    -0.00032704    -0.00118091    -0.65532225
O       2.17626721     0.98450794     4.43981385     0.00032704     0.00118091     0.65532225
O      -0.00002232    -0.98451887     3.51581377    -0.00212399    -0.00029285    -1.36379693
O       2.17633375     2.95355938     1.78793788     0.00212399     0.00029285     1.36379693
