# total energy = -19075.99569257 eV

CRYSTAL
PRIMVEC
        7.60600008     0.00000000     0.00000000
        0.00000000     7.60600008     0.00000000
       -1.89786986    -1.89786986     4.85670466
PRIMCOORD
22 1
Ti      3.82974498     6.56499101     1.24543501    -0.21842455     0.25396981     0.36575216
Ti      3.81341298     2.86105999     1.17000402    -0.24976245    -1.23499952     0.01990497
Ti      0.13229003     6.67016700     1.08209900    -0.12241232     0.51603808     0.22582059
Ti      0.01449401     2.92894798     1.08302400     0.29199772    -0.76866320     0.87095201
Ti      5.64871922     2.94592425     3.50504483    -0.41848190     0.44658742     0.15904413
Ti      6.06419020    -0.78679677     3.63527281    -0.06219269    -2.00620632     0.72994880
Ti      1.84955921     2.80888120     3.62411284     0.42315746    -1.69411541    -0.45413926
Ti      1.41043020    -1.15784078     3.88480783     1.25740001     2.06495656    -0.74987331
O       3.58276197     4.63893700     0.86143902     0.28286902     2.43469033    -0.63507891
O       3.99272199     0.98586399     0.80029000    -0.72737770    -2.36293390     1.08429888
O       0.10449102     4.81674702     0.69529700     0.16459103    -0.00704560    -0.07806309
O       0.06443998     1.03690298     0.73209101    -0.10314550    -0.16406241     0.76324434
O       5.45630821     4.88554323     4.04276179     0.49919143    -0.52984619    -0.74402688
O       5.62225221     0.96013724     3.93891684     0.41756813     1.18185274     0.13614819
O       2.13028224     4.69150521     4.26661281    -0.73605929    -0.19203500    -1.41088336
O       1.95773124     0.80450722     4.08238081    -0.92232524     1.02227948    -0.44642004
O       3.75042824     2.69168823     3.22175482     0.74873046     0.58843471     0.17147593
O      -0.01898577     2.84413023     3.16427479     0.15461026     0.43666167     0.02375057
O       5.65784198     6.53165099     1.84230202     0.18937544     0.20785243    -0.74355894
O       5.70424198     3.04249200     1.54262497     0.47807470    -0.07184590     0.61799907
O       1.92875201     6.63355301     2.02100798    -0.04243916    -0.28763379    -0.35611952
O       1.93401098     2.79106100     1.61767501    -1.30494487     0.16606376     0.44982366
