# total energy = -19518.61488668 eV

CRYSTAL
PRIMVEC
        7.60600008     0.00000000     0.00000000
        0.00000000     7.60600008     0.00000000
       -1.89786986    -1.89786986     4.85670466
PRIMCOORD
23 1
Ti      3.73019398     6.67458399     1.17039799     1.01540281    -1.45448722    -0.51331991
Ti      3.73015398     2.67472498     1.24276700     1.55876735     1.78697418     0.18400338
Ti     -0.06733098     6.69146601     1.15607502    -0.34846020    -1.22983237     0.15570195
Ti      0.07658798     2.81726702     1.25372298    -1.70090596     1.50520740    -0.75692971
Ti      5.67790922     2.87865725     3.61659079    -0.81744476     0.21063179     0.37016623
Ti      5.63780822    -0.81426276     3.59503984     1.10289645    -0.18772788     0.05091455
Ti      1.95003224     2.80468022     3.69646280     0.80006744    -0.04074172     1.82731583
Ti      1.89796321    -0.98719080     3.53600684    -0.56713672     0.27385781     0.13671075
O       3.78393400     4.70198498     0.88404701    -0.77435845     0.40980828    -0.50594984
O       4.02300199     0.91496202     0.78131799    -0.71012739    -0.03790347    -0.26208653
O       0.12539802     4.70594503     0.90020199     0.13397946     0.75671065    -0.00683837
O      -0.07312600     0.99115899     0.68017200     0.06144399    -0.45737011     0.30041500
O       5.65267123     4.69085622     4.11223583     0.51019807     1.16194803    -0.78064249
O       5.82958322     1.06145521     4.11345182     0.29975809    -1.63545207    -1.24963425
O       1.98381820     4.73935225     3.95382482    -0.80759820     0.22303043     0.53992055
O       1.92324323     0.87353125     4.11210083    -0.85116273     0.37085194     0.20534586
O       3.78285421     2.85527523     3.57408183     0.43403014    -0.64015505    -2.02414465
O       3.83065622    -0.75524278     3.14600580    -0.49060060    -0.42989144     0.03331714
O       0.01839822    -0.97722380     3.18263079    -0.27430904     0.18797368     0.23710234
O       5.67559698     6.64192899     1.54250998     0.55096036    -0.02658907     0.60947689
O       5.73491199     2.87656499     1.64922699     0.13332332    -0.17100902     1.10379916
O       1.89288300     6.82710398     1.54529700     0.17931163    -0.17738639     0.45660187
O       1.87040800     2.73551702     1.75517500     0.56196494    -0.39844812    -0.11124550
