# total energy = -19072.27552329 eV

CRYSTAL
PRIMVEC
        5.17600016     0.00000000     0.00000000
        0.00000000     5.50899976     0.00000000
        0.00000000     0.00000000     9.26300011
PRIMCOORD
22 1
Ti      1.72528500     3.34127601     3.20834102     1.04624526     0.93342135    -0.50635402
Ti      3.63959302     2.28204202     6.02717499     0.30509853    -0.19253790    -0.62287517
Ti      4.37611102     2.08166402     1.18318397     0.56233621     0.35302262    -0.03775898
Ti      0.79186698     3.30888100     8.12469698    -0.04769681    -0.03612633     1.73253285
Ti      1.76095398     0.44403200     1.29731602    -0.55472163     1.54842457    -1.20310678
Ti      3.18797400     5.09659902     8.00316301     0.86583834    -0.24933205     0.31829343
Ti      0.57493902     0.38062502     6.00201500     1.54567580     0.49129377    -1.56326601
Ti      4.32660902     4.94268898     3.49865698     0.78814831    -0.45970519    -0.01846901
O       3.32869302     3.37550499     4.49026799    -0.17180760     0.39569858     0.89123442
O       1.05727302     2.14579099     0.43935597    -1.78505125    -0.11272903    -1.57121998
O       4.39850500     3.94459999     9.01887598     1.33323781    -1.14943961     0.63427570
O       3.39592901     0.93758202     0.03995701     0.66442344     0.67440755    -0.12762807
O       1.43382899     4.90482100     9.08157798     0.64240476     0.59821494    -1.34421797
O       4.72950802     1.04855398     4.60909098    -2.08322708    -0.16969030     0.42855472
O       0.95479398     4.73845201     4.30239700    -0.19654240    -1.20382411     0.93405256
O       0.02795897     3.37897899     2.41245997    -0.14115284     0.08830663     1.02292123
O       0.47008800     2.40431699     6.38277099    -1.20348010    -0.54031084     1.45672897
O       2.78234900     1.88218500     2.33726098    -0.23214576     0.12153892     0.45142700
O       2.72202999     3.33348102     7.77638701    -1.82261585    -1.83940465    -3.65153040
O       0.03238999     0.47335000     2.10551198    -0.10747344     1.05701921    -0.69758348
O       2.50996803     0.46850602     6.27687802    -0.00769737     1.06254786     1.09260381
O       2.71754500     4.64885701     2.10400599     0.60020369    -1.37079624     2.38138517
