# total energy = -4984.49464627 eV

CRYSTAL
PRIMVEC
        2.80500338     0.00000000     0.00000000
        1.28949202     4.20159608     0.00000000
       -0.00000859    -0.00005760     4.44643954
PRIMCOORD
6 1
Ti      2.04724346     2.10076928     2.22321977     0.00000000     0.00000000     0.00000000
Ti      0.00000000     0.00000000     0.00000000     0.00000000     0.00000000     0.00000000
O       1.65380303     0.81881805     0.86654556    -5.29083090     2.39102604     2.82998756
O       2.44068394     3.38272050     3.57989393     5.29083090    -2.39102604    -2.82998756
O       0.39343691     1.28192791     3.08976632     5.29047635    -2.39146133     2.83000324
O       0.89604670     2.91961044     1.35667322    -5.29047635     2.39146133    -2.83000324
