# total energy = -19518.09456859 eV

CRYSTAL
PRIMVEC
        7.60600008     0.00000000     0.00000000
        0.00000000     7.60600008     0.00000000
       -1.89786986    -1.89786986     4.85670466
PRIMCOORD
23 1
Ti      3.82908901     6.71524602     1.20858300    -0.04067821     0.62628728    -0.18513467
Ti      3.72873499     2.97067101     1.13395599     0.53389748    -0.90347647     1.92874049
Ti     -0.11558898     6.55961002     1.18275402     0.75161215    -1.03877877    -0.74946657
Ti      0.03180001     2.64998700     1.23852099    -0.56654331     1.74640139     1.22240445
Ti      5.65539723     2.81808323     3.70125381    -1.18748603     0.58071472    -0.27207758
Ti      5.69899625    -0.93168778     3.71032280    -0.32677705    -0.91001068    -1.36211877
Ti      1.94161922     2.90280720     3.68438380     1.40337110     0.68669074    -0.87496858
Ti      1.82263324    -0.90227679     3.53701883     1.06980120    -0.58726229     0.47440882
O       4.06134797     4.85244500     0.81542298    -0.52853622    -1.26514109    -0.34603153
O       3.77575202     1.08210001     0.88158199    -0.09169663    -0.59394331    -1.39061354
O      -0.16906202     4.71279200     0.76764198     0.49342290     0.76267870     1.10561282
O       0.27228101     0.86093000     0.77594102    -0.23671847    -0.21491191     0.46882515
O       5.84273121     4.67949124     3.94559680    -0.25104543     0.22528940     0.93485731
O       5.47596725     0.88369521     4.26827681     0.58812310    -0.32901519    -2.08128050
O       1.94674325     4.72573821     4.04350380    -0.64791207     2.08411823     0.43320405
O       1.90289620     1.03513420     3.85230783    -0.79386928    -1.55606795     1.16872700
O       3.76576623     2.82723524     3.13083481     0.70983068     0.10080425     0.06703974
O       3.89616122    -1.08557675     3.14553483    -0.58132227     0.25595779     1.18637094
O       0.00955525    -1.14230376     3.07874779    -0.01440127     0.78362188     1.54483711
O       5.72841797     6.84370501     1.67425898     0.22548712     0.33021127    -0.72995034
O       5.78114001     2.81419197     1.83780602     1.28404102    -0.61720434    -1.37272509
O       1.96170002     6.57257798     1.65691398    -0.25830546     0.12325925    -0.36418738
O       1.92440599     3.09381299     1.66977198    -1.53429481    -0.29022238    -0.80647309
