# total energy = -19957.90906465 eV

CRYSTAL
PRIMVEC
        7.60600008     0.00000000     0.00000000
        0.00000000     7.60600008     0.00000000
       -1.89786986    -1.89786986     4.85670466
PRIMCOORD
24 1
Ti      3.72205598     6.83898899     1.37237400     0.74536077    -1.09012552    -1.28353914
Ti      3.64373399     3.04374901     1.14833998     1.38536746     0.00132926     2.88638010
Ti      0.03969602     6.49237900     1.35846002    -1.51513314    -1.54313658    -1.85933739
Ti      0.16375401     2.68162900     1.21020001    -2.07704820     1.69609414    -1.02422683
Ti      5.84935921     2.74221625     3.49535883    -0.70878450    -0.39559934     0.75846543
Ti      5.58021823    -1.12343076     3.65955184     1.25455585    -0.24862603    -0.87914277
Ti      2.04741424     2.92865322     3.73745583    -0.55549013     2.92685056    -1.11206141
Ti      1.74303223    -0.82644379     3.62539482     1.51933716    -2.43554496     1.61386791
O       3.53218200     4.99707898     0.76673402     1.17432892    -0.80558168    -0.32120984
O       3.63897901     0.93244402     0.70738801     0.28873782     0.51000833     1.58330160
O      -0.01858201     4.49042002     0.76342798     0.57568538     3.01071715    -0.25101767
O       0.26417401     0.69748599     0.63230501    -0.84066620     0.30831961     1.71075766
O       5.64532323     4.58780922     3.72828180    -0.18641893     1.49560818     1.73776788
O       5.97765824     0.82346023     4.05176780    -0.77212853    -0.77541749    -0.04511645
O       1.81507823     4.89144224     3.61545783     1.10000087    -1.48895493     2.27581486
O       1.70319921     1.00564024     4.22313582     0.60605706     1.45109208    -1.90892885
O       3.88661423     2.79560325     3.19845081    -2.07333836    -0.59224432    -0.12682511
O       3.76917821    -0.77122478     3.17237782     0.33299295     0.49472594     1.36620888
O       0.01296823     2.93288225     3.23144580     2.24162432    -1.07318914    -0.30367259
O       0.03186520    -0.93641476     3.24439382    -2.92195235     0.03657061    -0.21121235
O       5.76060100     6.36201301     1.69711499    -1.01472172     1.27055558    -0.78458091
O       5.83365799     2.91145698     1.56513999    -1.14555647    -1.35911392    -0.52375782
O       1.82105502     6.69099002     1.80381099     1.70022873     0.38216789    -2.99276570
O       1.91030601     3.20763701     1.72795602     0.88696150    -1.77650516    -0.30516975
