# total energy = -19873.06343962 eV

CRYSTAL
PRIMVEC
        9.78217223     0.00000000     0.00000000
        0.00003041     3.47039648     0.00000000
        0.00000000     0.00000000    15.56261096
PRIMCOORD
24 1
Ti      3.54558473     2.05655362     5.77361780     0.27646825     0.03523261     1.94776718
Ti      6.23661751     1.41384252     9.78899362    -0.27646825    -0.03523261    -1.94776718
Ti      8.43650399     1.41384364     2.00762574     0.27626154    -0.03365550    -1.94699867
Ti      1.34569832     2.05655264    13.55498582    -0.27626154     0.03365550     1.94699867
Ti      3.54556993     0.32135545     2.00768814     0.27634304     0.03359430    -1.94619469
Ti      6.23663239     3.14904083    13.55492341    -0.27634304    -0.03359430     1.94619469
Ti      1.34568345     0.32135426     9.78893121    -0.27595866     0.03503181    -1.94811222
Ti      8.43651886     3.14904201     5.77368021     0.27595866    -0.03503181     1.94811222
O       3.09612983     1.22198549     7.94148143     0.40742024     0.53800148    -2.09821688
O       6.68607248     2.24841072     7.62112999    -0.40742024    -0.53800148     2.09821688
O       1.79503460     1.22199958     0.16022583    -0.40564850     0.53809867    -2.09882211
O       7.98716778     2.24839663    15.40238513     0.40564850    -0.53809867     2.09882211
O       6.68605761     0.51321242     0.16017529    -0.40736779    -0.53789118    -2.10030153
O       3.09614470     2.95718373    15.40243567     0.40736779     0.53789118     2.10030153
O       7.98715291     0.51319839     7.94153191     0.40787224    -0.53808041    -2.09920778
O       1.79504927     2.95719782     7.62107952    -0.40787224     0.53808041     2.09920778
O       0.35542720     2.11089186     4.20384955    -1.55832821     0.53290427     0.38928290
O       9.42677511     1.35950428    11.35876181     1.55832821    -0.53290427    -0.38928290
O       5.24652625     1.35947212     3.57750561    -1.55929648    -0.53273457    -0.39103280
O       4.53567606     2.11092409    11.98510555     1.55929648     0.53273457     0.39103280
O       0.35541233     0.37569362     3.57745593    -1.55767257     0.53266567    -0.38920063
O       9.42678999     3.09470259    11.98515523     1.55767257    -0.53266567     0.38920063
O       4.53566125     0.37572579    11.35881142     1.55860923     0.53287110    -0.38889338
O       5.24654106     3.09467035     4.20379987    -1.55860923    -0.53287110     0.38889338
