# total energy = -39033.88588815 eV

CRYSTAL
PRIMVEC
        7.60600008     0.00000000     0.00000000
        0.00000000     7.60600008     0.00000000
       -3.79573973    -3.79573973     9.71340985
PRIMCOORD
46 1
Ti      1.97197145     4.97029446     6.30424463     0.01326844     2.01308222    -0.19726693
Ti      3.94417199     6.63766398     1.21316001     0.36105244     1.35380922     1.21554501
Ti      1.78295045     1.08943144     5.91914764    -0.97081600    -0.03661278     0.34817943
Ti      3.81633499     2.58670000     1.20322699     0.02219917     1.59382127    -0.55303241
Ti     -1.83766754     4.92163042     6.09596063    -0.62702776    -3.63499100     1.84376704
Ti      0.15900401     6.55450801     1.19103199    -0.22188037    -0.31286223     1.07482642
Ti     -2.16698253     0.87364343     5.91317264     0.62611013     1.58318358     1.27264100
Ti     -0.14595301     2.70285499     1.25795598    -0.70225467     0.61448488    -2.52290440
Ti      3.56699143     0.79547745     8.53642461    -0.07767871    -0.36965484    -0.04687097
Ti      5.72598402     2.91623899     3.70385101    -0.68918754    -0.00272229     0.16354613
Ti      3.90773443    -3.02013855     8.59715463     0.34658226     0.39689697     0.20393844
Ti      5.78489198    -0.99300698     3.56557498     1.80485107     0.88028974    -0.98767036
Ti     -0.17183555     0.87390945     8.29262164     0.64122822    -1.89468287    -0.69059651
Ti      1.89248898     3.06398401     3.27458798     0.68706767    -2.08038524     2.41323035
Ti      0.08096544    -2.87099455     8.58947960    -1.01702080     0.60888631     0.94909095
Ti      2.09686099    -0.76029002     3.63962202    -1.01220127     1.51636830     1.05470650
O       1.93572043    -0.62939453     5.72492064     0.56411310    -4.56111607    -0.63609733
O       3.64741701     0.87342298     0.93432303     0.24544634    -2.37490907    -1.36628704
O      -1.91423155     3.02600543     5.83451262    -0.14972902    -1.01631838    -2.10530412
O      -0.18973301     4.68068401     0.83462900     0.56122986    -0.64581790    -0.17586635
O       5.36158643    -1.09612955     5.43608263    -0.47240130     3.01678547     0.71780702
O       0.08166401     0.87741001     0.79756399     0.24697949    -0.59074151     1.06406995
O      -3.51354956     2.67040742     9.00569661    -0.52085581     0.63246693    -0.45688263
O       6.02247098     4.74960998     3.78858001    -0.72967832     0.37519197     0.99479515
O       3.46909343    -1.11087756     8.93935763     0.85309569     1.86809046    -0.50428942
O       5.75705303     1.07420299     4.05158502     0.13741472    -0.64392223     0.95421027
O       0.07004444     2.49342647     9.13087762    -0.59809461     0.86970116    -0.50164864
O       1.81845301     4.46622001     4.54364298     0.19530364     0.15911638    -0.68295519
O       0.13477647    -0.98980954     8.93982664    -0.41210659     1.03020362    -0.30218598
O       1.85590299     1.14236398     3.93960900     0.31854026     1.36965570     0.08673080
O       1.74983544     0.98691742     8.01898562     1.15213798     0.23846631     0.27560256
O       3.85427001     2.92914599     3.12962702    -0.64594671     0.61505387     1.01344979
O       1.92325444    -3.01222254     8.34041561    -0.90519603    -0.75762468    -1.15872900
O       4.00723399    -0.38013802     3.21105501    -1.66539541    -2.25995501     0.09739471
O      -1.97887955     0.77020145     7.92672764    -1.36407409    -0.39286291    -0.08389821
O      -0.04756700     2.69631002     3.06810302     0.47662048     0.61187984     1.24816306
O      -1.90824253    -2.71116757     8.31768162     0.60415265    -0.35148227    -0.87538022
O       0.11141700    -0.80223298     3.31948301     0.45858573    -0.50165892    -0.21425011
O       3.80195444     4.67332543     6.69550760    -0.64205149     0.29208540    -1.45193438
O       5.88233500     6.71903101     1.65152002    -1.32708953    -0.56423960    -0.96148135
O       3.54934046     1.13901244     6.48577963     2.66423465     0.41560818    -0.29304828
O       5.57239398     2.78137103     1.46395902     2.79391703     0.19775853     0.96829838
O      -0.11330458     4.96003747     6.63633262     2.32135529    -0.06620053    -0.16743750
O       2.04894198     6.54454799     1.73628602     0.12517009    -1.02235533    -0.28072523
O      -0.06297453     0.81257643     6.33513260    -1.29572823     0.88338098     0.16262414
O       1.99377298     2.88218199     1.48450898    -2.17424185     0.94484811    -0.90587428
