# total energy = -4980.22105188 eV

CRYSTAL
PRIMVEC
        4.54812371     0.00000000     0.00000000
        0.00000000     3.05409768     0.00000000
        0.00000000    -0.00009788     6.05971806
PRIMCOORD
6 1
Ti      2.27406186     1.52699984     3.02985892     0.00000000     0.00000000     0.00000000
Ti      0.00000000     0.00000000     0.00000000     0.00000000     0.00000000     0.00000000
O       2.27406186     0.59517957     1.18094978     0.00000000     0.13760678     2.77510066
O       2.27406186     2.45882017     4.87876805     0.00000000    -0.13760678    -2.77510066
O       0.00000000     0.93178145     4.21080985    -0.00000000    -0.13763789     2.77531792
O       0.00000000     2.12221823     1.84890792    -0.00000000     0.13763789    -2.77531792
