# total energy = -4918.99007450 eV

CRYSTAL
PRIMVEC
        5.13805313     0.00000000     0.00000000
       -0.00000671     2.20202292     0.00000000
       -2.56905604    -1.10109112     5.57593405
PRIMCOORD
6 1
Ti     -0.00021955     1.65158556     1.39398346    -0.04150328    -0.03419440    72.32995335
Ti      2.56920967    -0.55065372     4.18195049     0.04150328     0.03419440   -72.32995335
O       0.00005459     0.55049224     0.90827409     0.04059953     0.03462557   -64.38632972
O       2.56893538     0.55043956     4.66765991    -0.04059953    -0.03462557    64.38632972
O      -0.00002148    -0.55053209     3.69624111    -0.00101687     0.00015015    -0.39438269
O       2.56901141     1.65146384     1.87969289     0.00101687    -0.00015015     0.39438269
