# total energy = -4990.46191699 eV

CRYSTAL
PRIMVEC
        3.88042314     0.00000000     0.00000000
        0.19389167     3.87557605     0.00000000
       -2.03719185    -1.93782079     4.95383228
PRIMCOORD
6 1
Ti      0.14526199     2.90682920     1.23845793     0.00026817    -0.00026817     0.00000000
Ti      1.89186046    -0.96907442     3.71537407    -0.00026817     0.00026817     0.00000000
O       0.04851374     0.96888767     0.80693877    -0.00035790    -0.00053093    -0.31292625
O       1.98860855     0.96886701     4.14689329     0.00035790     0.00053093     0.31292625
O      -0.04849460    -0.96886947     3.28385491    -0.00053093    -0.00035790    -0.31292625
O       2.08561689     2.90662409     1.66997720     0.00053093     0.00035790     0.31292625
