# total energy = -19074.38692640 eV

CRYSTAL
PRIMVEC
        5.17600016     0.00000000     0.00000000
        0.00000000     5.50899976     0.00000000
        0.00000000     0.00000000     9.26300011
PRIMCOORD
22 1
Ti      1.86610701     3.44922399     3.41757803    -0.03377222     0.90020680    -0.99841989
Ti      3.65135398     2.19244601     5.86286397    -1.13487841     0.30110303     0.25856334
Ti      4.32313000     2.26724199     1.34842200     0.56505309     0.70530939    -2.47316279
Ti      0.71825302     3.24240300     7.96605398    -0.32038888    -0.94506948     2.32722409
Ti      1.79536903     0.52496399     1.19339799    -0.13701285     1.26716815    -1.14410354
Ti      3.21480101     5.07508098     8.05997701     0.47691950    -0.89643833     0.63326294
Ti      0.74184999     0.07214898     6.08455601     0.92427542     1.23070784    -1.17950815
Ti      4.41915900     4.99888501     3.35703200     0.12864417     0.19919038     0.12809678
O       3.51355702     3.47475002     4.35713599     0.69734257    -1.31112246     1.90583324
O       0.87848303     1.98389001     0.12622301    -0.00020595    -0.75092130    -0.00675815
O       4.30457498     3.65396198     9.05225299    -0.65099739     0.59013267    -0.51811733
O       3.45356102     0.89442100     0.09555602     0.05003060     0.12964664     0.45894697
O       1.77172502     4.61047399     9.10970799    -1.18116394     0.35939228     0.02367421
O       4.37179399     0.59575701     4.91050098    -1.04055283     0.99338747     0.35995663
O       1.16584098     5.06540000     4.27269200    -0.29719547    -1.46859359     1.37355298
O       0.11633501     3.57538302     2.42830502     0.16047058    -0.23414660     0.22052129
O       5.14390201     1.77844297     6.91573001    -0.28439831    -0.50086394    -0.55303781
O       2.48390001     2.16994799     2.12879001     1.67891479    -0.56015668     0.38801355
O       2.15660399     3.52079098     6.81472399     0.87080700     0.79447837    -0.71665671
O       0.17339302     0.93925602     2.19766201    -0.94482343    -1.48502731     0.77653361
O       2.44317898     0.84731300     6.75175502    -0.12215161    -0.59560681    -0.55834123
O       2.72276401     4.74099101     2.37932501     0.59508359     1.27722322    -0.70607404
