# total energy = -19517.30415686 eV

CRYSTAL
PRIMVEC
        5.93400000     0.00000000     0.00000000
        0.00000000     9.29699974     0.00000000
        0.00000000     0.00000000     4.64899994
PRIMCOORD
23 1
Ti      4.45378201     7.23016300     2.11606197    -0.61936895    -0.20402405     0.23696632
Ti      4.40588401     2.29770598     2.30989002     1.91425695    -0.98633030     0.01174815
Ti      1.34140199     6.95016997     2.21414201    -0.67005724     0.62881468     1.06251777
Ti      1.46104701     2.40404701     2.43986400    -1.85662951    -1.68801881    -0.17130110
Ti      2.90450200     4.52830800     0.25437000     0.01555441     0.31085317    -0.01886522
Ti      3.07917198     0.05529701     4.58072999    -1.27899626    -0.01126349     0.69279737
Ti      5.79407998     4.58396300     0.03428000     0.78502262     0.20186715    -0.78685505
Ti      0.09324003     9.29030899     4.57530497     1.56821024     1.56202545    -0.39033294
O       4.49298002     5.49078199     1.00454897    -0.86093961     0.63367895    -0.10216565
O       4.56874498     0.71388599     0.94463801    -0.97789991     1.27078569     0.37597204
O       1.50369901     5.51753401     1.04459399     0.50743928    -0.16082462    -0.62021819
O       1.47060998     0.83008299     0.97225001     0.76986313     0.74014683    -0.33636135
O       4.52094000     8.49224000     3.50792599    -0.33935000    -0.77174158     0.65323734
O       4.58521800     3.62058799     3.69142498    -1.29081896     0.98431867     0.60776042
O       1.64460902     8.37224800     3.83863002    -0.66484176    -1.11341509    -1.85286104
O       1.53734299     3.76444101     3.82356101     0.41831633    -0.10489951    -0.29660437
O       3.00754699     1.41747799     3.29815002    -0.47489373     0.57013334    -0.48449680
O       0.12517100     5.99348201     3.30626601    -0.04131816     0.95198884    -0.54895593
O       5.92673001     1.42609099     3.23121497     0.30506356     0.04673290     0.17874907
O       2.93589602     7.91054302     1.33931301     0.50039265    -1.51667915     1.01984619
O       2.90689901     3.32696399     1.62304600     0.62398486    -0.17779956    -1.05464685
O       5.90795898     7.91391298     1.22144201     1.05477258    -1.81200234     1.22996761
O       5.89877902     3.06635001     1.30231902     0.61223723     0.64565284     0.59410246
