# total energy = -19958.03024665 eV

CRYSTAL
PRIMVEC
        5.93400000     0.00000000     0.00000000
        0.00000000     9.29699974     0.00000000
        0.00000000     0.00000000     4.64899994
PRIMCOORD
24 1
Ti      4.45106998     7.05771202     2.48192602    -0.32976210    -1.68919663    -0.59718110
Ti      4.43856499     2.21684003     2.23506701    -1.37968506    -0.76454995     3.58399727
Ti      1.47950900     6.95898998     2.26179802    -0.33252115     0.29762047     1.08222374
Ti      1.40440102     2.59232700     2.11657602     0.85151754    -2.53061514     1.69998216
Ti      2.83437400     4.71522500     0.11083898     3.76557095    -0.17953814    -1.96962722
Ti      3.02451702     9.13545998     4.59709200    -0.92065119     1.68385157    -0.39485500
Ti      5.88184498     4.57400600     0.07516402    -3.25899839     1.16589724    -3.41695135
Ti      0.01116601     0.03027402     0.08851098     0.70102516     1.04707598    -0.08725042
O       4.30620300     5.62267301     0.89434400     1.16128442    -0.59126653    -0.21727938
O       4.44450601     0.91416598     0.84762601     1.47071938    -0.72679200    -0.35635734
O       1.43411602     5.43435502     0.94046598    -0.81380896     1.82685741     1.49986438
O       1.57023400     0.90522098     0.91950299    -0.48581964     0.19760709    -0.52275689
O       4.64221801     8.55129502     3.57178001    -0.19192212    -0.68054041     1.78905086
O       4.44530200     3.65349599     3.62931798     0.93088341     1.02639428     1.30694724
O       1.69238103     8.10528199     3.78837300    -1.25624096     1.45611139     0.54066617
O       1.46184898     3.64884801     3.93808698    -0.51686983    -0.58923073    -2.28160525
O       2.92640602     6.06425301     3.37488803     0.07836571     0.13242138    -1.68229682
O       3.13931699     1.24420398     3.27165899    -0.41558761     1.09026102    -0.99027643
O       5.88779002     6.06134201     3.06483699     1.68219372    -0.70831476     1.28228598
O       0.10352702     1.40303701     3.17006098     0.84765832     0.97284306    -0.89880863
O       3.14911699     7.99100802     1.56923201    -1.99091005    -0.28520050    -1.49177338
O       3.13588300     3.22979397     1.33190501    -2.16119196    -0.54083484     1.04269199
O       5.88545000     7.89328602     1.40263600     1.32105386     0.15879833    -0.53365271
O       5.79856201     3.37811199     1.39108501     1.24369654    -1.76965934     1.61296237
