# total energy = -4986.52136329 eV

CRYSTAL
PRIMVEC
        2.71463360     0.00000000     0.00000000
        0.00000000     4.25342387     0.00000000
        0.00000000    -0.00005520     4.25342387
PRIMCOORD
6 1
Ti      1.35731675     2.12668429     2.12671188     0.00000000     0.00000000     0.00000000
Ti      0.00000000     0.00000000     0.00000000     0.00000000     0.00000000     0.00000000
O       1.35731675     0.82891890     0.82892965     0.00000000     1.36755639     1.36755639
O       1.35731675     3.42444968     3.42449412     0.00000000    -1.36755639    -1.36755639
O       0.00000000     1.29774301     2.95564240     0.00000000    -1.36797908     1.36797908
O       0.00000000     2.95562556     1.29778137    -0.00000000     1.36797908    -1.36797908
