# total energy = -19073.61653980 eV

CRYSTAL
PRIMVEC
        5.93400000     0.00000000     0.00000000
        0.00000000     9.29699974     0.00000000
        0.00000000     0.00000000     4.64899994
PRIMCOORD
22 1
Ti      4.51050098     6.82028501     2.42897300    -1.74865856    -0.68349769     0.14098675
Ti      4.32262601     2.46955100     2.21403300     0.45275164    -0.97981692    -0.59812958
Ti      1.60835599     7.29440300     2.52721402     1.22634493    -0.61552952     0.03046373
Ti      1.53295902     2.36347001     2.08373602    -0.08242600     0.60990241     0.10745107
Ti      3.02638501     4.59847500     4.62440098    -1.35989528     0.42956105    -0.62285846
Ti      2.98796801     0.03318799     0.07165901     0.82507271     1.57282281     0.76685186
Ti      5.79867599     4.63396501     4.31962002     1.58381556    -0.89870090     1.21693315
Ti      5.88763497     8.86795701     0.18413400    -2.02028260     2.08942396     1.37188639
O       4.39747300     5.40256798     0.88885501     0.43918341     1.07607881     1.56079055
O       4.68533299     0.93505599     1.07103099    -0.16772289    -1.29494867    -0.88339872
O       1.53494301     0.66688102     1.23168799    -0.81444145     0.19991080    -0.66218529
O       4.33382901     8.24023299     3.88227101     0.65622008     1.24117429    -0.02620598
O       4.29134100     4.15734798     3.36043498     0.50377674    -1.71044398    -1.43301182
O       1.41202699     8.61138902     3.78804099     1.19617482     0.46299877    -0.92408901
O       1.47521801     3.76006101     3.54130099    -0.88706434     0.53917982     0.39568624
O       2.79214200     6.25331101     3.50831700    -0.22991764    -0.66028730    -0.59227286
O       2.96999001     1.56624200     3.23319299     0.62250493    -0.49608117     0.81778774
O       0.01691102     6.36807802     3.56277998     1.20614582    -1.42233994     0.26129823
O       3.14864501     7.90203300     1.54186301    -0.74069164    -0.30910174    -0.18174904
O       3.01096098     2.97545202     1.00333102    -0.84203917     0.76027317     0.44918474
O       0.04068399     7.66685102     1.53008501    -0.33593224    -0.14083634    -0.86552055
O       5.91747999     3.21902897     1.31275202     0.51708118     0.23025831    -0.32989940
