# total energy = -39034.36181710 eV

CRYSTAL
PRIMVEC
        5.93200024     0.00000000     0.00000000
        0.00000000     9.29399984     0.00000000
        0.00000000     0.00000000     9.29399984
PRIMCOORD
46 1
Ti      4.39548298     7.16269401     6.94635201    -1.24373768    -1.54315766    -1.66519229
Ti      4.45760997     6.82526901     2.42904201     0.21199576     1.35989810     1.06148728
Ti      4.46228700     2.21582501     6.99864600    -0.39706486    -1.03180079     0.06177566
Ti      4.53432200     2.59665901     2.07718999    -0.48139811    -1.31557407     0.60614808
Ti      1.35027201     6.85432301     7.08475700     1.00505514    -0.15342138    -0.92245611
Ti      1.49948502     7.01278900     2.27681502    -0.85823404    -0.11030885    -0.40917476
Ti      1.47296001     2.55613800     6.92676499    -0.05785833    -1.35069509     0.42129392
Ti      1.48727198     2.08055101     2.52774701     0.67206630     0.65309078    -0.86590339
Ti      2.95188400     4.62803802     4.76195701     0.70978749     1.15812737    -0.07498419
Ti      2.98151999     4.85599398     9.22016300    -0.52649296    -0.08894760    -0.75875828
Ti      2.82275602     9.27334002     4.59069901     1.81993856     0.13982487     1.16567536
Ti      3.00926602     0.04005999     9.28946902     0.10459920     1.78720712     1.19654917
Ti      0.00892198     4.58093801     4.64527898    -0.59721889     0.80351966    -0.08019557
Ti      5.93084902     4.65797802     0.05636902     0.33339713    -0.51858347    -0.32630191
Ti      5.91088501     9.09273701     4.77603699    -2.05191463     0.45150054     0.20852169
Ti      0.09162799     9.18404099     9.08716303    -1.16412498     1.34183533     2.48511122
O       4.42184500     5.56428899     5.69000801    -0.11958257    -0.90547602    -1.25198989
O       4.42035902     5.65573903     0.85551001     0.42061901    -0.92366247     0.64835918
O       4.49630299     0.78461000     5.55543501    -0.34699287     1.04849986     0.15706078
O       4.50313001     0.96895000     0.74850900    -0.75672736     0.66191970     0.85119847
O       1.42415801     5.57181299     5.65493102     0.53290349    -1.08617990    -1.03720834
O       1.41518100     5.78744600     0.71142500     0.24445621    -1.06863032     0.81590775
O       1.49946099     0.83958400     5.67298602     0.19615673    -0.17177727    -2.04089231
O       1.37833301     0.84124398     1.05350401     0.96417536    -0.30768686    -0.55189624
O       4.35911898     8.56819599     8.23690198     0.57325954    -1.24654404     0.00115057
O       4.45437099     8.00724201     4.05721499     0.59359903     1.98572850    -1.89654744
O       4.40803803     3.84601400     8.45639099     0.06721535    -1.36222855     0.09703398
O       4.51404101     3.88108099     3.55580198    -0.35731148    -0.18484182     0.08755921
O       1.52505603     8.41487699     8.28720800     0.75495639    -0.35308741     0.31454579
O       1.34002698     8.37901300     3.69129199     1.23729732     1.08493755    -0.30793600
O       1.51644203     3.77030599     8.35778299    -0.10730992     0.38120912     0.40384641
O       1.48439399     3.60483999     3.88553799     0.05146656     0.07083238    -0.36136791
O       2.89527198     5.99408199     7.80972100     1.08452154     1.18532990     0.05755571
O       2.96853901     6.06477002     3.36942300    -0.77637111    -0.51200325    -0.88798120
O       2.88627698     1.45878001     7.88487300     0.33686375     0.04423070     0.35729425
O       3.27061000     1.59687300     3.19560600    -1.09619615    -1.01772811    -0.25197720
O       5.86428302     5.99020598     7.79439899    -0.41324174     0.46631035     0.88518924
O       0.08774097     6.09833801     3.25155401    -0.08464306    -0.89261202    -0.24450892
O       0.08298002     1.47720798     7.82108100    -0.26831888    -0.25118504     0.40951389
O       2.97995601     7.84613601     5.90980401    -0.51727427    -0.08341819     1.42682857
O       2.97390502     7.71198201     1.43552902     0.78606032     1.88456969    -0.55148075
O       3.03860102     3.06931102     6.01007198    -0.10897316     1.37121379    -0.57435458
O       0.06851501     7.95008701     6.17777402    -0.32419103    -0.83709468     0.57451064
O       5.87509898     7.95766901     1.36947802     0.07706807    -0.75133627     0.13997451
O       5.78741700     3.23249299     5.99699898     0.66426197    -0.24591608     0.59775857
O       0.33196199     3.22785200     1.43368003    -0.78654240     0.43411319     0.02925685
