# total energy = -19074.81625025 eV

CRYSTAL
PRIMVEC
        7.60600008     0.00000000     0.00000000
        0.00000000     7.60600008     0.00000000
       -1.89786986    -1.89786986     4.85670466
PRIMCOORD
22 1
Ti      3.69013998     6.65117398     1.36968398     0.76612063    -0.74570144     0.90049862
Ti      3.76718802     2.86552598     1.32772101     1.30764941     0.82389026    -1.29604885
Ti      0.07303101     6.67159599     1.11856302    -0.42480142    -0.54794882    -0.48080521
Ti      0.27077402     2.86364899     1.00641099    -0.97382265    -0.01697392    -0.04838381
Ti      5.83401921     2.92900423     3.38036279     0.29642336     0.39865149     0.62711955
Ti      5.86794021    -0.92556980     3.47478881     0.82658966    -0.37119390    -0.14746773
Ti      1.86901124     2.82359122     3.67411284    -0.04143566    -1.32743380     1.15784454
Ti      1.23966121    -1.02155377     4.04441981    -0.33864089     1.14622418    -1.28474036
O       3.61608501     4.74227998     0.93471901    -0.07873415     0.06849781     0.36912879
O       3.93827701     1.00098698     0.87173998     0.55243694    -1.20355518     1.17244713
O       0.18410198     4.74700902     0.59418699     0.57288519    -0.11373510     0.43583634
O      -0.05840000     0.87790400     0.53118998    -0.09370569     0.88815783     1.40289468
O      -1.47702578     4.79225722     3.80091281    -0.63639249    -0.53807990     0.63514628
O       5.93611221     0.96214224     3.77608482    -0.11145813     0.23719387     0.52818552
O       1.71982522     4.71386422     4.40841681    -0.28696633     0.63320766    -2.36771538
O       1.51309821     0.99270620     4.10228280     0.45880016    -0.18807138     0.99236391
O       3.78473824     2.90774321     3.22581181     0.73846918     0.36259613     0.90279539
O       0.17108623     2.95757721     2.96180480    -0.65693587     0.24431994     0.07345876
O       5.80776800     6.46810500     1.55810500    -0.49722017     0.61121830     0.09763999
O       5.77495599     3.06949401     1.54454203    -0.03286848    -0.75590872    -0.60470260
O       1.75514499    -0.86483099     2.31296899     0.91133942    -0.60596656    -2.39872290
O       2.04750500     2.31541199     1.70922199    -2.25773177     1.00061176    -0.66677291
