# total energy = -39033.35370617 eV

CRYSTAL
PRIMVEC
        5.93200024     0.00000000     0.00000000
        0.00000000     9.29399984     0.00000000
        0.00000000     0.00000000     9.29399984
PRIMCOORD
46 1
Ti      4.44824602     7.10560198     6.79033299     0.65781827    -1.70094607     0.87831770
Ti      4.38443799     6.90209300     2.33846401    -0.32795487     0.28156753     1.16454304
Ti      4.49063302     2.14616602     7.18253297     0.82218716     0.76694853     0.13676423
Ti      4.35846200     2.67302399     2.04864299     0.51320627    -1.34586296     0.34945444
Ti      1.44806201     6.83090300     7.02826802    -0.67342153    -0.62855037     1.08468532
Ti      1.41374200     7.14321299     2.23312699     0.49147966    -0.73803389     1.24712176
Ti      1.48793900     2.40654298     6.72417599    -1.12078851    -0.61202408     1.92745700
Ti      1.35775098     2.03269899     2.66097701     0.17406323     0.69775266    -1.91280864
Ti      2.82512102     4.66169898     4.82416100     0.76035185     1.24881998    -1.15115222
Ti      3.01435502     4.82136102     9.14413801    -1.30361381    -0.18464384    -0.72359740
Ti      3.04108402     9.25149802     4.67462699     0.31870892    -1.19907811    -0.68408262
Ti      2.96383399     9.28064499     9.10890898     0.10496764    -0.35156069     2.37525540
Ti      5.82158302     4.52594401     4.60310800    -0.18966727     0.86391644    -0.38681439
Ti      0.03469799     4.70815101     0.15914598     1.51141533     0.17677729    -1.37813957
Ti      0.02336799     9.19560700     4.85931700    -0.59595237     0.19069571    -1.49885420
Ti      0.02629101     0.02915100     9.25963401     0.16868243     0.63168994     0.93392117
O       4.61245602     5.49274301     5.51747099    -1.98247348     0.99224179     0.92094841
O       4.40779302     5.75696502     0.71636799     0.14111042    -0.54939996     1.91593999
O       4.47587903     0.93688202     5.69003299     0.29534787    -1.38016355    -1.29042121
O       4.45307302     0.97662202     0.84455599     0.54284647     0.34071655    -0.39532371
O       1.35592299     5.47347101     5.69827302     1.04589919    -0.86225319    -0.58976989
O       1.57906100     5.75512698     0.97064501    -0.35954731    -2.23409921    -1.35892674
O       1.54260502     0.87958599     5.48410499     0.02397657     1.30163997    -0.11542766
O       1.55957701     1.06659601     0.84917899    -0.44701679    -1.24924138     0.70444962
O       4.57048999     8.32762598     8.25519600    -0.44166941     0.77468473     0.31049347
O       4.53422801     8.29778800     3.77209498    -0.31631034     1.78049500     0.35764290
O       4.47933799     3.79170602     8.44383600    -0.10586136    -1.38927425     0.98481515
O       4.41238702     3.61419600     3.84282201    -0.18625155     0.39491414    -1.38856797
O       1.52359999     8.31046597     8.41670900    -0.51340913    -0.18462893    -0.47906612
O       1.63568497     8.30973000     3.85548501    -0.47885169     1.67925983    -0.97546919
O       1.42910100     3.88554100     8.44182899     0.49789534    -0.61036649     0.26973710
O       1.45032101     3.80715101     3.81623900     1.22436055    -1.77973935    -0.22333433
O       3.01397798     5.93679501     7.65888701     0.45703484     0.59385152     0.41066703
O       2.89233500     6.03846499     3.30857100     1.45106946    -0.06126195    -0.13913864
O       2.95855899     1.23546801     7.79006502    -0.25758169     1.20793248    -0.57139061
O       3.09944201     1.73409898     3.05916199    -0.27819218    -1.67284544     0.79185559
O       5.84408300     5.99199000     7.93079903     0.96588848     1.17002258    -0.86635744
O       0.11459302     6.20378700     3.34736203    -1.60964359    -1.24034382    -1.00077040
O       0.24276297     1.34872300     7.85847002    -1.31820328     0.30208262    -0.02474225
O       2.93038199     7.75030503     5.95899601    -0.02966206     1.00898199     0.13614048
O       2.90157401     7.92894701     1.33277598     1.32225688    -0.06837080     1.04488026
O       3.02021100     3.20265602     6.25947402     0.75895497     1.06714448    -1.23433412
O       0.17136098     7.78616901     5.92636699    -0.57942402    -0.63583996     1.35471013
O       5.86441499     7.83373897     1.40097401    -0.30218778     1.35625871    -0.49617090
O       5.83428899     3.05483199     6.05285602     0.58232191     0.83458425    -0.19057178
O       0.24689098     3.14287502     1.59504501    -1.41415971     1.01555013    -0.22456820
