# total energy = -19071.54599161 eV

CRYSTAL
PRIMVEC
        5.17600016     0.00000000     0.00000000
        0.00000000     5.50899976     0.00000000
        0.00000000     0.00000000     9.26300011
PRIMCOORD
22 1
Ti      1.59217200     3.18541902     3.63657999    -0.20726904    -1.16254709    -0.12048194
Ti      4.47474500     3.17808198     5.90309298    -0.04938243    -1.60843620    -2.15232962
Ti      4.21852103     2.14593398     1.32309802     1.95962357     0.59198875     2.11472928
Ti      1.43098397     2.86561102     8.18417100    -0.91202257    -1.27930736    -0.08406508
Ti      1.67061099     0.58461201     1.50629098    -0.33786339    -0.02931444     0.08039046
Ti      3.00442802     5.30845598     8.19731401     0.66708633    -0.55229502    -1.75289008
Ti      1.43484602     0.13866502     5.64918802     1.14898066     1.70821381    -0.85208781
Ti      4.06362502     4.90883799     3.56425802    -0.24259961    -0.77349096    -1.41790093
O       3.24535898     3.21751399     4.58020600    -1.35220253    -0.55512863    -0.84322111
O       0.68095698     1.50187399     0.17583602    -1.04151777     1.89451987    -0.71533850
O       4.93014700     3.60432198     7.56012401     0.51152399     0.65334018     2.86048600
O       3.16935997     1.15370700     0.21516098    -0.54733202    -0.32613761    -1.18566595
O       1.98125100     4.29124898     0.04002501    -0.19025425    -0.58845426     0.01062894
O       2.66941601     0.23536201     4.32244398    -0.10883895     1.79085192     2.69261244
O       0.31791800     4.36907899     4.77745899     0.69404384     1.19945607     1.09483167
O       4.88735302     3.43525202     2.66697799    -0.08226530    -0.79607271    -2.12376002
O       0.71413100     1.86710101     5.02890402    -0.87905793     0.18262938     0.45608970
O       2.42716200     2.18080602     2.28084698    -0.21146869    -1.51182465    -0.35108581
O       2.50172498     4.25716599     6.59633698    -0.01702482    -0.86386836     1.68102361
O       4.78293201     0.68621002     2.24806302     0.95590951    -0.99942237     1.03018331
O       1.96354399     1.00678401     7.23543398     0.05903718     1.98715521     0.71650552
O       2.13404897     4.56868798     2.53268301     0.18289395     1.03814499    -1.13865382
