# total energy = -19960.88380767 eV

CRYSTAL
PRIMVEC
        7.60600008     0.00000000     0.00000000
        0.00000000     7.60600008     0.00000000
       -1.89786986    -1.89786986     4.85670466
PRIMCOORD
24 1
Ti      3.89783400     6.71729701     1.11969101    -2.11979667     1.51373523     1.10444863
Ti      3.82534699     2.97105800     1.22264001     0.51504769    -1.30006517    -1.02499868
Ti     -0.10861400     6.57762803     1.24469300     3.36674103     0.44715511    -0.64167303
Ti      0.04247103     2.78475099     1.25446299    -0.79111280    -0.94647125     0.29832290
Ti      5.66827423     2.73776322     3.69363180     0.54443027    -0.05157403    -0.62383188
Ti      5.70149021    -1.01834478     3.66983581    -0.47862697     0.30512398     0.65154504
Ti      1.94438523     2.92772124     3.64433482    -0.65384617    -0.49225614    -0.77649787
Ti      1.88374724    -0.82461479     3.62268279     0.26009418    -0.25674351    -1.77947504
O       3.89571100     4.84596898     0.69891302     0.00326839    -0.58128242     1.06789858
O       3.83240801     1.01390102     0.60671003     0.00049237    -0.71996932     2.44299782
O      -0.04533398     4.62920401     0.80165199    -0.38394941     0.93340670     0.43555815
O      -0.10157901     0.93125602     0.86991602     0.19880420    -0.30434365    -1.05220199
O       5.65349521     4.70923820     4.07448580    -0.40099943    -0.12589077    -0.06493966
O       5.72837421     0.85216625     4.06243882    -0.30679931     0.15746393     0.49558315
O       2.00154225     4.84017824     4.03667979    -0.07437021    -1.57835068    -1.02116234
O       1.93517422     0.96032023     4.15469479    -0.29168533     1.98114679    -1.20338831
O       3.75671121     2.65494423     3.06199981    -0.31658082     0.46534799     2.62903392
O       3.71163722    -0.82524880     3.09216180     1.87280149    -0.46717116     0.15665455
O      -0.09506278     2.67608020     3.29749580     1.67296680     0.80534437    -0.37732881
O      -0.03327578    -0.99176876     3.22584282    -0.37391053    -0.26955636     0.08130937
O       5.75436100     6.77980400     1.62667700    -2.18517547    -0.49307761     0.35081147
O       5.64896000     2.72841102     1.74332899     0.43614102     0.75111104    -1.01501611
O       1.84676198     6.76151802     1.53909901     0.07671892    -0.42401081    -0.08564348
O       1.89788500     2.76697402     1.64147899    -0.57065296     0.65092746    -0.04800663
