# total energy = -19940.53203349 eV

CRYSTAL
PRIMVEC
        5.67651302     0.00000000     0.00000000
        2.58771080     5.45928496     0.00000000
        0.00000000     0.00000000    10.44044896
PRIMCOORD
24 1
Ti      3.59093791     3.23516718     3.87333207     1.41509997    -3.39503165     0.93222784
Ti      4.67328572     2.22411770     6.56711694    -1.41509997     3.39503165    -0.93222784
Ti      5.94986234     2.22411955     1.34685073    -3.29149046    -0.51124888     0.91866193
Ti      2.31436140     3.23516554     9.09359845     3.29149046     0.51124888    -0.91866193
Ti      2.29708265     0.50552479     1.34689258     1.41509997    -3.39503165    -0.93222784
Ti      5.96714102     4.95376026     9.09355661    -1.41509997     3.39503165     0.93222784
Ti      1.02050599     0.50552277     6.56707510     3.29149046     0.51124888     0.91866193
Ti      7.24371774     4.95376226     3.87337397    -3.29149046    -0.51124888    -0.91866193
O       2.70782912     1.92230702     5.32768119     1.32929579     1.92961492    -1.12393477
O       5.55639452     3.53697787     5.11276788    -1.32929579    -1.92961492     1.12393477
O       1.95282487     1.92232907     0.10749029     0.65649364    -1.01574656     1.07193650
O       6.31139885     3.53695591    10.33295850    -0.65649364     1.01574656    -1.07193650
O       4.26253923     0.80733537     0.10745637    -1.32929579    -1.92961492    -1.12393477
O       4.00168442     4.65194957    10.33299236     1.32929579     1.92961492     1.12393477
O       5.01754354     0.80731336     5.32771505    -0.65649364     1.01574656     1.07193650
O       3.24668005     4.65197160     5.11273396     0.65649364    -1.01574656    -1.07193650
O       1.78023320     3.32064662     2.82022574     0.59686511     1.77574771     1.68603058
O       6.48399038     2.13863828     7.62022333    -0.59686511    -1.77574771    -1.68603058
O       4.05820281     2.13858748     2.40003198     1.34958489     1.06136155     0.33623974
O       4.20602082     3.32069741     8.04041687    -1.34958489    -1.06136155    -0.33623974
O       0.48637790     0.59100406     2.39999863     0.59686511     1.77574771    -1.68603058
O       7.77784568     4.86828084     8.04045022    -0.59686511    -1.77574771     1.68603058
O       2.91216552     0.59105485     7.62025657    -1.34958489    -1.06136155     0.33623974
O       5.35205812     4.86823004     2.82019239     1.34958489     1.06136155    -0.33623974
