# total energy = -19517.72162199 eV

CRYSTAL
PRIMVEC
        7.60600008     0.00000000     0.00000000
        0.00000000     7.60600008     0.00000000
       -1.89786986    -1.89786986     4.85670466
PRIMCOORD
23 1
Ti      3.75744598     6.78339198     1.20510398     0.73396306    -0.99906164    -0.69881427
Ti      3.66909401     2.86278399     1.17023898     1.28312339     1.50125792     2.51156454
Ti     -0.01550399     6.62368603     1.19195101    -0.30734619     0.11310467     1.29479466
Ti      0.17021701     2.72742601     1.07636600    -3.73237440     0.35544435     1.11775769
Ti      5.66101423     2.85182124     3.74207280    -0.69243459    -0.73798864    -1.83423879
Ti      5.67329025    -1.05134078     3.60488280     0.01429920     0.00961773     0.34677792
Ti      1.86220422     2.90345920     3.67110880     1.92095339     1.53781928     2.51221272
Ti      1.87235225    -0.83159977     3.59972179     0.14099704    -1.59846468    -0.59738756
O       3.84527400     4.83465199     0.80185700    -0.61643095    -0.54667767    -0.38617675
O       4.00485201     1.11302200     0.92650200    -0.22650245    -1.47830285    -1.16705115
O       0.14952798     4.69849702     0.86437998     0.26565445    -0.05002674    -0.40472547
O      -0.26780602     0.88648101     0.72261101     0.77271012    -0.76254217     0.21579534
O       5.84786021     4.64737923     4.20322383     0.08161250     0.63894071    -2.20736307
O       5.73295324     0.84399522     4.12392779     0.36915296     0.90679037    -2.45033447
O       1.95271422     4.87959724     4.00330781    -0.84488538    -0.63555431     0.67757824
O       1.70346321     1.01413020     4.07693484    -0.18587746    -0.05983139    -0.17116483
O       3.80433023     2.92591823     3.20110579     0.30726391    -0.03157213    -0.11942470
O       3.76102020     6.35861320     3.07538683    -0.01312420     1.31122865     0.95819985
O       0.00909523    -1.04725278     3.21324179     0.77478963     0.23176035     0.51354334
O       5.73747802     6.64746000     1.73043300    -0.43879208    -0.07181171    -1.20962890
O       6.01315502     2.83810401     1.70087099    -0.75727115     0.36288898     1.67953443
O       1.91039401     6.88492602     1.45847902    -0.23541132     0.15976687     1.36932506
O       1.79967002     2.57559198     1.84682199     1.38593053    -0.15678619    -1.95077408
