# total energy = -19515.58584236 eV

CRYSTAL
PRIMVEC
        5.17600016     0.00000000     0.00000000
        0.00000000     5.50899976     0.00000000
        0.00000000     0.00000000     9.26300011
PRIMCOORD
23 1
Ti      1.91952703     3.24741701     3.37617901    -0.53589857    -0.94713999     4.67644244
Ti      3.37695399     2.31317801     5.96671501    -0.53501591     0.91470526    -2.86502194
Ti      4.21782600     2.21044402     1.48158300     2.39789526    -0.40160261    -1.40855522
Ti      0.79382303     3.41374302     7.78765901    -1.08667458     1.17651333     1.74168393
Ti      2.14444000     0.23607999     1.50694398    -2.36389446     0.81289776    -2.68990867
Ti      3.19047198     5.19613398     7.98142801     0.23521720     0.32417021     0.59316786
Ti      0.74652500     0.58725699     5.96258700    -0.74452927    -0.32663512    -3.93907497
Ti      4.43993302     4.85954899     3.25750498     3.05097524     0.78263998     3.43512031
O       1.76096398     1.97288698     4.98938300    -0.89438916     0.05035250    -1.93734032
O       3.60006898     3.41487499     4.53012800     0.84025765     1.40751084    -1.20062695
O       4.80632900     2.89024300     9.09151498     0.61468543     1.16487369     0.79634294
O       3.21984100     1.15168798     0.16388799    -1.07941301    -2.15315983    -0.51594963
O       1.83382502     4.54218001     9.05198602    -0.20768068     0.53675501     1.31025008
O       4.46983101     0.57901601     4.72597502    -1.19605578     1.00473864    -0.23699769
O       0.99394299     4.62909701     4.31849197     1.34652708     0.28121503     0.15967251
O       0.31025599     3.22036298     2.54631203    -1.66805907     0.25597707    -1.51864836
O       5.11871699     2.13892000     6.71956400     0.09988585    -1.12504857     0.12065729
O       2.73487698     1.71482100     2.47501301    -0.99664814    -0.27268205     1.08304804
O       2.53067399     3.60128900     7.00646200     0.38855142    -0.59535150     0.01488926
O       0.17430199     0.71814899     1.81079301     0.76426173    -1.22981515     0.43727745
O       4.91986498     4.83222402     7.15394200     0.51645691     0.21690091     0.50394900
O       2.51731999     0.76493101     6.65797798     0.44991648    -1.64105451     2.45574690
O       2.98703698     4.24083802     2.16302699     0.60362840    -0.23676089    -1.01612426
