# total energy = -19958.45698067 eV

CRYSTAL
PRIMVEC
        7.60600008     0.00000000     0.00000000
        0.00000000     7.60600008     0.00000000
       -1.89786986    -1.89786986     4.85670466
PRIMCOORD
24 1
Ti      3.97504599     6.59280398     1.25721301    -4.30858480    -0.84282130    -1.51013774
Ti      3.88533600     2.79266399     1.21504298     0.32873186     0.65100048    -0.25115213
Ti     -0.12022600     6.67738799     1.33470398     1.35625074    -2.15703937    -3.02996958
Ti     -0.06833001     2.73104500     1.22835100    -0.24080498     2.16136731     1.44001602
Ti      5.63933321     2.85554522     3.72831080     1.67399832     1.48726315     0.81910338
Ti      5.61674221    -0.86007877     3.66917080    -1.70061182    -1.39013583     0.28689845
Ti      1.93635423     2.91676124     3.49209883     0.23422579     0.80963940     2.04306824
Ti      1.79173622    -0.88261278     3.57291182     2.40146884    -0.86271959     0.08242986
O       3.89278401     4.74822301     0.75165099     0.14420346     1.14573130     0.20695640
O       4.07394398     0.93212498     0.66485200    -0.93018150    -0.62046913    -0.10625962
O       7.23558601     4.80739301     0.81845099     1.40004872    -0.64649642     1.34407707
O      -0.06637200     0.95000699     0.70006203    -0.01188647    -0.18492666     1.63932776
O       5.50262820     4.67323325     4.12483183     0.85641344     2.34896432     0.59534096
O       5.55389923     0.98187622     3.99203882     0.58670642    -1.80526270     1.38106549
O       2.24688121     4.72954924     3.57717683    -1.91727851     0.40907835     1.84440133
O       2.10200322     0.99764522     4.19339881    -0.56850763    -1.19401149    -2.13104833
O       3.98247924     2.87231421     3.17703680    -3.72706533    -0.76424579    -0.21993199
O       3.71633324    -1.03159676     3.13455382     2.17705567     0.77735147     0.80373229
O       0.06603121     2.71627820     3.27320281    -0.16117609     0.12390356    -0.67426280
O      -0.12857679    -1.11651875     3.25511982     1.69558917     0.56442317     0.18901960
O       5.63391999     6.76836700     1.76109898     3.32295924     0.56078146    -0.50343247
O       5.74913701     2.87585298     1.82354099     1.36806316    -0.45790953    -2.64644312
O       2.06448000     6.75774800     1.55487299    -3.46911468     0.45093721     0.42003151
O       1.96382599     2.81927102     1.65440600    -0.51050326    -0.56440363    -2.02283005
