# total energy = -4985.47383421 eV

CRYSTAL
PRIMVEC
        2.70317217     0.00000000     0.00000000
        0.42249005     4.21434104     0.00000000
       -0.00000281    -0.00005496     4.24078295
PRIMCOORD
6 1
Ti      1.56282975     2.10714304     2.12039147     0.00000000     0.00000000     0.00000000
Ti      0.00000000     0.00000000     0.00000000     0.00000000     0.00000000     0.00000000
O       1.43392262     0.82130232     0.82646613    -2.21421815     1.69186184     1.75418618
O       1.69173692     3.39298375     3.41431677     2.21421815    -1.69186184    -1.75418618
O       0.12890597     1.28581843     2.94685846     2.21424463    -1.69327055     1.75558589
O       0.29358145     2.92846754     1.29392444    -2.21424463     1.69327055    -1.75558589
