# total energy = -4977.65462634 eV

CRYSTAL
PRIMVEC
        4.51697256     0.00000000     0.00000000
        0.00000000     2.35913974     0.00000000
        0.00000000    -0.00012443     6.29103840
PRIMCOORD
6 1
Ti      2.25848607     1.17950760     3.14551920     0.00000000     0.00000000     0.00000000
Ti      0.00000000     0.00000000     0.00000000     0.00000000     0.00000000     0.00000000
O       2.25848607     0.45973733     1.22603074     0.00000000    -0.25683145     1.63404671
O       2.25848607     1.89927792     5.06500771     0.00000000     0.25683145    -1.63404671
O       0.00000000     0.71972139     4.37155122     0.00000000     0.25677565     1.63245622
O       0.00000000     1.63929386     1.91948718     0.00000000    -0.25677565    -1.63245622
