# total energy = -4989.35542829 eV

CRYSTAL
PRIMVEC
        4.21293721     0.00000000     0.00000000
       -0.00000851     3.81170552     0.00000000
       -2.10649833    -1.90589102     5.13344820
PRIMCOORD
6 1
Ti     -0.00018416     2.85892236     1.28336180    -0.00076876    -0.00051782     1.69154225
Ti      2.10661420    -0.95310775     3.85008579     0.00076876     0.00051782    -1.69154225
O       0.00004280     0.95291920     0.83619668    -0.00025505    -0.00028719    -0.52546272
O       2.10638707     0.95289530     4.29725102     0.00025505     0.00028719     0.52546272
O      -0.00002160    -0.95290588     3.40292066    -0.00187074    -0.00023268    -1.02847044
O       2.10645147     2.85872032     1.73052703     0.00187074     0.00023268     1.02847044
