# total energy = -4986.38678171 eV

CRYSTAL
PRIMVEC
        3.66433142     0.00000000     0.00000000
        1.56948665     3.31119864     0.00000000
       -2.61694373    -1.65562127     4.80573354
PRIMCOORD
6 1
Ti      1.17702242     2.48352643     1.20143333     0.00088986    -0.00088986     0.00000000
Ti      1.43985217    -0.82794885     3.60429990    -0.00088986     0.00088986     0.00000000
O       0.39240972     0.82779531     0.78281466     0.00029388     0.00034221    -2.25169816
O       2.22446474     0.82778214     4.02291862    -0.00029388    -0.00034221     2.25169816
O      -0.39237670    -0.82777447     3.18568128     0.00034221     0.00029388    -2.25169816
O       3.00925111     2.48335188     1.62005200    -0.00034221    -0.00029388     2.25169816
