# total energy = -19961.73411726 eV

CRYSTAL
PRIMVEC
        7.60600008     0.00000000     0.00000000
        0.00000000     7.60600008     0.00000000
       -1.89786986    -1.89786986     4.85670466
PRIMCOORD
24 1
Ti      3.82044400     6.69826001     1.22665001    -0.00602615     0.64850085     0.10679878
Ti      3.84526702     2.92093697     1.16716102    -0.79768017    -0.48823365     0.53766312
Ti      0.01081601     6.56116098     1.19313499    -0.30806224     0.67364599     0.38030281
Ti     -0.01002600     2.82596802     1.25502598     0.95188522    -0.60516900    -1.45099772
Ti      5.71532221     2.76855324     3.60881279    -0.70750717    -0.51646000     0.54720783
Ti      5.66282820    -1.03877478     3.63978479     0.32362616     0.36285890    -0.03556326
Ti      1.89281421     2.92327620     3.64005483     0.90936559     0.33410212    -0.56424577
Ti      1.88129021    -0.88166576     3.64245682    -0.16144657    -0.08649066     0.03142969
O       3.83119799     4.81610100     0.80094999    -0.32171712    -0.20714717    -0.02487389
O       3.77578901     0.99243701     0.86730998     0.24466781     0.55667927    -0.89043583
O      -0.00333101     4.67818201     0.78137799     0.23109032     0.25611051     0.43570650
O      -0.00775800     0.83117199     0.64670699    -0.05709240     0.28530462     1.93431465
O       5.70184920     4.64664320     4.06572782     0.22912343    -0.09540082    -0.39787476
O       5.59822222     0.87228324     4.11893479     0.57401802     0.96610908    -0.34492442
O       1.83259220     4.85274620     4.00929979     0.17908152    -0.24751865     0.45738065
O       1.92532025     1.08860021     4.02667580     0.00157866    -1.68305221     0.93273332
O       3.84016321     2.89845123     3.31277384    -0.30236467     0.11497155    -1.16565376
O       3.82752222    -0.81512977     3.24540079    -1.28064588    -0.60607532    -0.26273547
O       0.06822725     2.75524020     3.22157379    -1.18672653     0.22964459     0.08870181
O      -0.06567577    -0.94844179     3.19206882     0.79356254     0.15429504    -0.07048836
O       5.63941698     6.57443899     1.61746302     0.88536690     0.10499901    -0.49818382
O       5.74029298     2.76476603     1.62009398    -0.74076004     0.15661881     0.33578928
O       1.89742700     6.78103000     1.71627401    -0.32445586    -0.59632338    -0.47839326
O       1.89475899     2.83028499     1.58681498     0.87111913     0.28803051     0.39634136
