# total energy = -19518.14144158 eV

CRYSTAL
PRIMVEC
        5.93400000     0.00000000     0.00000000
        0.00000000     9.29699974     0.00000000
        0.00000000     0.00000000     4.64899994
PRIMCOORD
23 1
Ti      4.50645801     6.97532299     2.34135501    -0.34435286     0.48624978    -0.80196157
Ti      4.46763899     2.34726100     2.35595803    -0.30512398    -0.41824613    -0.02312425
Ti      1.47309399     7.02027299     2.32323699     0.35357772     1.00218836    -0.52596100
Ti      1.44079000     2.29618798     2.25616800     0.30538701    -0.24771508     0.46067449
Ti      2.92849198     4.49919299     0.03120299     0.23383678    -0.80670834     0.67280267
Ti      2.98934800     0.04028801     4.64327901    -0.30292337     0.53772354     0.14262917
Ti      0.01245302     4.67894497     4.61582699    -0.37974771    -0.58167194     0.28243039
Ti      5.93051003     0.00942200     4.64410098     0.13635928     0.67410468     0.11792832
O       4.42496302     5.53554800     0.93345697    -0.19610891     0.41790418    -0.10993630
O       4.42212700     0.98390101     0.96714900     0.46887452    -0.92013157    -0.61105657
O       1.49778202     5.45897500     0.86891698     0.43016294     1.26493489     0.42283401
O       1.46875601     0.96573700     0.89499600    -0.41497595    -0.93106339    -0.20491443
O       4.40228301     8.43934402     3.75518898     0.70021475    -0.83601122    -0.26096115
O       4.46822199     3.63505400     3.81728201    -0.30371604     0.97901448    -0.64324088
O       1.48274100     8.41975499     3.68124900    -0.30687902    -0.49721888     0.55892795
O       1.49829998     3.68598599     3.69074202     0.21555057     1.29842866     0.31654071
O       2.89578899     1.41270900     3.25773602     0.78704171     0.08302712    -0.12095991
O       0.04326998     6.08879398     3.20380798    -0.33659404    -0.53699721     0.62910264
O       0.00715501     1.50001901     3.31365201    -0.34556822    -0.63382010    -0.47811198
O       2.95964401     7.96663200     1.50169502     0.10278014    -1.12506811     0.04762585
O       2.94547799     3.14755401     1.35329800     0.38703756     0.72269109     0.28628884
O       0.00764502     7.84905802     1.42891399    -0.08343670     0.50758917    -0.78392270
O       0.06169498     3.29434201     1.36908997    -0.80139541    -0.43920423     0.62636570
