# total energy = -4977.74741665 eV

CRYSTAL
PRIMVEC
        4.81098249     0.00000000     0.00000000
       -0.00001071     4.81098249     0.00000000
       -2.40552897    -2.40553433     6.13988363
PRIMCOORD
6 1
Ti     -0.00021186     3.60841908     1.53497074    -0.00502162     0.00502162     0.00000000
Ti      2.40565453    -1.20297106     4.60491249     0.00502162    -0.00502162     0.00000000
O       0.00004806     1.20273745     1.00013681    -0.00049571    -0.00246775    -1.33271896
O       2.40539448     1.20271044     5.13974649     0.00049571     0.00246775     1.33271896
O      -0.00002717    -1.20271656     4.07007855    -0.00246775    -0.00049571    -1.33271896
O       2.40546964     3.60816439     2.06980474     0.00246775     0.00049571     1.33271896
