# total energy = -19902.23641057 eV

CRYSTAL
PRIMVEC
        8.34331291     0.00000000     0.00000000
        0.00002936     4.78143515     0.00000000
        0.00000000     0.00000000    12.62273508
PRIMCOORD
24 1
Ti      3.02406714     2.83347419     4.68294486     0.44815527    -0.50024662     2.56778019
Ti      5.31927532     1.94796135     7.93979075    -0.44815527     0.50024662    -2.56778019
Ti      7.19558061     1.94796304     1.62837255     0.44800744     0.50090945    -2.56932671
Ti      1.14776185     2.83347263    10.99436318    -0.44800744    -0.50090945     2.56932671
Ti      3.02405260     0.44275668     1.62842314     0.44882016    -0.49869290    -2.56822139
Ti      5.31928987     4.33867899    10.99431259    -0.44882016     0.49869290     2.56822139
Ti      1.14774730     0.44275479     7.93974016    -0.44862296    -0.49923720    -2.56967947
Ti      7.19559516     4.33868081     4.68299545     0.44862296     0.49923720     2.56967947
O       2.64072163     1.68362467     6.44128530     0.81644486     1.40213749    -2.17665612
O       5.70262083     3.09781080     6.18145031    -0.81644486    -1.40213749     2.17665612
O       1.53100441     1.68364394     0.12995811    -0.81622991     1.40131319    -2.17547058
O       6.81233811     3.09779160    12.49277710     0.81622991    -1.40131319     2.17547058
O       5.70260628     0.70709323     0.12991717    -0.81656698    -1.40157159    -2.17512297
O       2.64073618     4.07434231    12.49281804     0.81656698     1.40157159     2.17512297
O       6.81232356     0.70707396     6.44132624     0.81593398    -1.40230358    -2.17688623
O       1.53101877     4.07436158     6.18140929    -0.81593398     1.40230358     2.17688623
O       0.30314970     2.90833994     3.40971577    -2.31376745     0.75696930     0.20385050
O       8.04019276     1.87309560     9.21301983     2.31376745    -0.75696930    -0.20385050
O       4.47481645     1.87305089     2.90169212    -2.31441691    -0.75730638    -0.20356434
O       3.86852601     2.90838464     9.72104322     2.31441691     0.75730638     0.20356434
O       0.30313515     0.51762230     2.90165183    -2.31413589     0.75755397    -0.20339928
O       8.04020731     4.26381324     9.72108351     2.31413589    -0.75755397     0.20339928
O       3.86851147     0.51766701     9.21306006     2.31415106     0.75703127    -0.20434827
O       4.47483100     4.26376853     3.40967548    -2.31415106    -0.75703127     0.20434827
