# total energy = -4988.39668904 eV

CRYSTAL
PRIMVEC
        3.13939612     0.00000000     0.00000000
        1.21082185     4.76761030     0.00000000
       -0.00000779    -0.00006446     4.95845388
PRIMCOORD
6 1
Ti      2.17510496     2.38377282     2.47922700     0.00000000     0.00000000     0.00000000
Ti      0.00000000     0.00000000     0.00000000     0.00000000     0.00000000     0.00000000
O       1.80566779     0.92912441     0.96632966    -0.09659381     0.03553754    -0.15989362
O       2.54454208     3.83842125     3.99212434     0.09659381    -0.03553754     0.15989362
O       0.36943386     1.45462233     3.44555765     0.09592429    -0.03554577    -0.16031066
O       0.84138007     3.31292342     1.51289634    -0.09592429     0.03554577     0.16031066
