# total energy = -4896.20496858 eV

CRYSTAL
PRIMVEC
        5.90438760     0.00000000     0.00000000
       -0.00000730     1.96812920     0.00000000
       -2.95223138    -0.98419267     6.69805524
PRIMCOORD
6 1
Ti     -0.00025269     1.47614383     1.67451340    -0.05186560    -0.03519456    99.63856418
Ti      2.95240145    -0.49220735     5.02354085     0.05186560     0.03519456   -99.63856418
O       0.00006234     0.49201097     1.09105829     0.05187614     0.03586896   -96.18694921
O       2.95208625     0.49192546     5.60699602    -0.05187614    -0.03586896    96.18694921
O      -0.00002709    -0.49209362     4.44008574    -0.00111560     0.00018795    -0.57704781
O       2.95217557     1.47602999     2.25796856     0.00111560    -0.00018795     0.57704781
