# total energy = -19516.91399972 eV

CRYSTAL
PRIMVEC
        5.17600016     0.00000000     0.00000000
        0.00000000     5.50899976     0.00000000
        0.00000000     0.00000000     9.26300011
PRIMCOORD
23 1
Ti      1.98286801     3.20779602     3.37915499    -2.35179382    -1.84872336     2.87325821
Ti      3.35822900     2.29158700     5.82356399    -1.32793928    -0.41040864    -1.69413804
Ti      4.32500101     2.20175302     1.38096201     0.43581038    -0.33153616     0.11348134
Ti      0.68255298     3.42174498     7.88630199     0.36884443     1.31603558     1.21431859
Ti      2.10018502     0.09641202     1.53687398    -0.46116172     1.15356160    -2.78790707
Ti      3.26031702     5.03165902     7.96153200    -0.98231938     0.83303491     1.33458198
Ti      0.70623901     0.58784703     5.90047599     0.38022310    -0.19042111    -2.66633704
Ti      4.60391500     4.98845202     3.35362902     1.05830965    -0.71805719     1.39727682
O       1.68599899     1.71306101     4.75314600     0.50857339     2.11288785    -0.67479039
O       3.57178499     3.65397098     4.36520600     0.15499747    -1.18323600     1.96505142
O       4.42041802     3.22438102     9.14189498     0.01319465     0.57925047    -0.39546949
O       3.38885000     0.83717100     0.28386999     0.30526154    -0.78195607    -0.69745107
O       1.58083401     4.75885100     9.11926101     1.07344420    -0.81959626     0.38476933
O       4.28180602     0.69256501     4.78665599    -0.01316482     0.83243661    -0.03675265
O       1.05735102     4.57695500     4.45040099    -0.82588621     0.76114426    -0.01534152
O       0.27621899     3.45076897     2.38634899     0.86095015    -0.63897079    -0.17670196
O       4.97027901     2.19559298     6.76717302     0.59239190    -0.61124581    -0.06923598
O       2.88055498     1.69136998     2.45761901    -0.27262600    -0.66556604     0.19230599
O       2.40113600     3.70222300     6.95384998     0.20301361    -1.75788137    -0.22637800
O       0.40901898     0.71789900     1.97489902    -1.31854009     0.22962814     0.41260565
O       5.08580698     4.98659699     7.31083798    -0.95605427     0.43403631    -0.75260974
O       2.41289400     0.77566399     6.75185799     1.08581841    -0.18476288     2.14117771
O       2.98701899     4.14218001     2.19495802     1.46865298     1.89034568    -1.83571409
