# total energy = -19958.81323281 eV

CRYSTAL
PRIMVEC
        7.60600008     0.00000000     0.00000000
        0.00000000     7.60600008     0.00000000
       -1.89786986    -1.89786986     4.85670466
PRIMCOORD
24 1
Ti      3.90255299     6.64661602     1.10445198    -0.80011449    -1.21659042     0.53256385
Ti      3.84651900     2.63688801     1.22014499     0.29424975     1.81316859     0.84151312
Ti     -0.09287997     6.77979802     1.18785502     0.35165402    -0.08427848    -0.17837600
Ti     -0.01075399     3.01028199     1.21573801    -0.53092914    -0.26154325     1.20220046
Ti      5.64411321     2.92230823     3.65759880    -2.05891729     2.10379154     0.40005866
Ti      5.76559125    -0.73077177     3.71916683    -1.52304726    -2.02518955    -0.32771782
Ti      1.68663622     2.61391320     3.63172283     2.47796690     0.81025724     0.66912805
Ti      2.02023422    -0.98473780     3.55540880     1.01866451    -1.43762824    -1.22388644
O       4.00440998     4.57848898     0.66353800    -1.28606782     0.33934229     0.27639498
O       4.15768998     0.90044801     0.65997801    -1.16910110     0.43803001     1.07745897
O      -0.09297401     4.88901400     0.93650699     0.58503160    -1.73514329    -0.14276441
O      -0.25616899     1.01485200     0.86391298     0.93049492     0.51333739    -0.96773325
O       5.30307223     4.79628421     4.14997781     1.74344359     0.26129488    -0.44740246
O       5.52984622     1.12325624     4.23192482     0.61053850    -1.55718844    -1.61407566
O       2.38866425     4.74925120     4.17236582    -2.10933973    -0.83700675    -1.79115248
O       2.03325023     0.83619425     4.00888280    -1.12519049     0.65537752    -0.21480572
O       3.82450422     2.85768225     3.08711879    -1.18183372    -0.64074126     0.59507433
O       3.83095722    -0.88576678     3.24541079     0.03067713     0.59783339    -0.40522529
O      -0.13397175     2.82892623     3.13166583     1.88290413     0.37055344     2.57847598
O      -0.01595178    -0.92608876     3.14494781    -0.03936386     0.18598596     1.82519699
O       5.63286899     6.68803499     1.76834998     1.28124854    -0.09391189     0.22214700
O       5.69783100     2.83063901     1.78235402     0.14036943     0.08964514    -1.93709787
O       1.94724602     6.58136598     1.50612101     0.11110975     0.48100139     0.28531362
O       1.81450900     2.40742602     1.71871802     0.36555213     1.22960278    -1.25528811
