# total energy = -19918.02318175 eV

CRYSTAL
PRIMVEC
        6.32203400     0.00000000     0.00000000
        3.16640623     5.93694739     0.00000000
        0.00000000     0.00000000    11.70901230
PRIMCOORD
24 1
Ti      4.16784268     3.51822953     4.34396007     0.37967546    -2.63145667     0.47809501
Ti      5.32059771     2.41871801     7.36505236    -0.37967546     2.63145667    -0.47809501
Ti      6.74234411     2.41872013     1.51049936    -1.29685797    -1.33803883     0.67476519
Ti      2.74609649     3.51822769    10.19851313     1.29685797     1.33803883    -0.67476519
Ti      2.58463981     0.54975603     1.51054633     0.37967546    -2.63145667    -0.47809501
Ti      6.90380071     5.38719173    10.19846622    -0.37967546     2.63145667     0.47809501
Ti      1.16289331     0.54975375     7.36500539     1.29685797     1.33803883     0.67476519
Ti      8.32554719     5.38719396     4.34400698    -1.29685797    -1.33803883    -0.67476519
O       3.11590920     2.09050015     5.97501938     1.76784311     2.04310449    -1.02422015
O       6.37253127     3.84644744     5.73399305    -1.76784311    -2.04310449     1.02422015
O       2.27504857     2.09052404     0.12055085     0.47651558    -1.32771225     1.78910048
O       7.21339198     3.84642358    11.58846120    -0.47651558     1.32771225    -1.78910048
O       4.78932828     0.87797371     0.12051285    -1.76784311    -2.04310449    -1.02422015
O       4.69911217     5.05897381    11.58849920     1.76784311     2.04310449     1.02422015
O       5.63018899     0.87794986     5.97505732    -0.47651558     1.32771225     1.78910048
O       3.85825142     5.05899774     5.73395505     0.47651558    -1.32771225    -1.78910048
O       2.15568185     3.61118791     3.16289634     0.67788780     3.15186383     2.92972737
O       7.33275862     2.32575968     8.54611603    -0.67788780    -3.15186383    -2.92972737
O       4.63111278     2.32570423     2.69164706     0.70586090     2.04193258     1.83592260
O       4.85732769     3.61124336     9.01736512    -0.70586090    -2.04193258    -1.83592260
O       0.57247886     0.64271418     2.69160969     0.67788780     3.15186383    -2.92972737
O       8.91596159     5.29423334     9.01740249    -0.67788780    -3.15186383     2.92972737
O       3.27412470     0.64276963     8.54615334    -0.70586090    -2.04193258     1.83592260
O       6.21431576     5.29417789     3.16285896     0.70586090     2.04193258    -1.83592260
