# total energy = -4985.19372581 eV

CRYSTAL
PRIMVEC
        2.78060799     0.00000000     0.00000000
        1.07244221     4.22274055     0.00000000
       -0.00000690    -0.00005709     4.39177344
PRIMCOORD
6 1
Ti      1.92652154     2.11134164     2.19588677     0.00000000     0.00000000     0.00000000
Ti      0.00000000     0.00000000     0.00000000     0.00000000     0.00000000     0.00000000
O       1.59930576     0.82293876     0.85589198    -4.56571449     2.12293110     2.43187394
O       2.25373727     3.39974453     3.53588156     4.56571449    -2.12293110    -2.43187394
O       0.32721285     1.28837978     3.05177963     4.56512957    -2.12204201     2.43090618
O       0.74522235     2.93430360     1.33999390    -4.56512957     2.12204201    -2.43090618
