# total energy = -19072.26995230 eV

CRYSTAL
PRIMVEC
        5.17600016     0.00000000     0.00000000
        0.00000000     5.50899976     0.00000000
        0.00000000     0.00000000     9.26300011
PRIMCOORD
22 1
Ti      1.90372198     3.11419801     3.33961498    -2.46346638     1.66227563    -0.60296994
Ti      3.32036801     2.23717800     5.93883499     0.06059810     0.97014469    -0.93937063
Ti      4.48988201     2.28304200     1.30273400     0.75131596    -0.89804862    -2.88125615
Ti      0.61920999     3.41639500     8.04447799     0.96290472    -1.78656152     0.83765441
Ti      1.87457802     0.59622999     1.30954399     0.94897910    -1.35332148    -1.53745907
Ti      3.36504602     5.02701898     8.04187899    -0.02060226     1.48010262     1.30840609
Ti      0.75091998     0.53384301     5.87355500    -0.19391216     0.10700755    -1.74046394
Ti      4.46541502     4.86639998     3.56351802    -0.71718841     1.33485735    -0.33647217
O       3.16489801     3.59602702     4.41188297     3.49988359     0.19329715     3.14259860
O       0.81163598     1.86163900     9.16355500    -0.69874614     0.94364278     1.22491025
O       4.27255002     3.79605200     9.18087301     0.31841325    -0.31801267     0.21934501
O       3.40316800     0.88201200     0.29710699     1.00911877     0.25804964    -3.07221411
O       1.84286898     4.65050598     8.81435199    -2.53946514     0.66996160     1.98736449
O       4.29655102     0.93039399     4.61959600     1.26208482    -1.19576653     0.16041581
O       0.97434899     4.53752701     4.44489501    -1.47168457     2.41792673     2.02982165
O       0.05333699     3.29671701     2.72215101     0.17920030    -1.04468203    -1.60970709
O       5.01224398     2.41949898     6.60125097     0.68159327    -1.29299592    -0.36250074
O       2.81662698     2.02157097     2.23343899    -0.53467396    -0.13617133     0.10720039
O       2.28889301     2.99853299     7.21604302     1.29193817     1.10794533    -1.28174065
O       0.11516802     0.63183399     1.89678500    -0.09381316    -0.57210666     2.20578673
O       2.61189503     0.61426699     6.52103998    -1.34314299    -1.82667820     0.52120266
O       2.85854899     4.86050802     2.30857100    -0.88933514    -0.72086612     0.61944840
