# total energy = -4986.38157685 eV

CRYSTAL
PRIMVEC
        4.27854174     0.00000000     0.00000000
       -0.00000952     4.27854174     0.00000000
       -2.13930442    -2.13930919     5.46037082
PRIMCOORD
6 1
Ti     -0.00018841     3.20906836     1.36509256    -0.00135266     0.00135266     0.00000000
Ti      2.13941609    -1.06983592     4.09527791     0.00135266    -0.00135266     0.00000000
O       0.00004274     1.06962817     0.88944973    -0.00039852    -0.00210573    -1.13649461
O       2.13918481     1.06960415     4.57092079     0.00039852     0.00210573     1.13649461
O      -0.00002417    -1.06960959     3.61963508    -0.00210573    -0.00039852    -1.13649461
O       2.13925166     3.20884185     1.84073544     0.00210573     0.00039852     1.13649461
