# total energy = -19960.40126798 eV

CRYSTAL
PRIMVEC
        5.93400000     0.00000000     0.00000000
        0.00000000     9.29699974     0.00000000
        0.00000000     0.00000000     4.64899994
PRIMCOORD
24 1
Ti      4.48060902     6.88247497     2.36590598    -0.88184577     1.63293445     0.35491598
Ti      4.42973101     2.44816399     2.37159601     0.46123808    -2.81887910    -0.07416530
Ti      1.47151398     6.91707200     2.17199299     1.12918059     1.66379053     1.08296911
Ti      1.48348100     2.44605902     2.32832301    -0.18104250    -1.67370136     1.17029152
Ti      2.98432802     4.65228100     0.01702400    -0.22566581    -0.24861240    -0.56302269
Ti      2.93144601     9.20262998     0.00182799     0.90983816     0.54448040    -0.69269067
Ti      5.91055798     4.67810300     0.00192398     0.15867029    -0.63208075    -0.01931953
Ti      0.02652400     0.00377002     0.07304398    -1.07967758     0.65398630    -0.73020540
O       4.36825300     5.58191298     0.85572502     0.72823053    -0.36943861    -0.75088093
O       4.43340599     0.87024802     0.95418601     0.49935059    -0.26948616    -0.81321992
O       1.45313200     5.53805403     0.89512501     0.06065312     0.06974866    -0.50631108
O       1.53397399     0.89884402     0.85931998    -0.36787846    -0.00055947     0.25076750
O       4.50167800     8.26254802     3.70148802    -0.30466118     1.00168082     0.51587841
O       4.42378401     3.62010300     3.77351000    -0.00389625     1.83634195     1.61724660
O       1.47022099     8.32529902     3.65503600     0.14471177     0.18052673     0.63178867
O       1.42872799     3.74846700     3.79749602     0.54833449     0.22082236    -0.14296162
O       3.01790701     5.94659199     2.99859501    -1.16306234    -0.47256765     1.72408163
O       2.95994998     1.42638098     3.22746798     0.16169005     0.50122723    -0.56932575
O       5.81831402     5.99357801     3.30025498     1.39445940     0.07841688    -0.97759446
O       0.01779702     1.56726902     3.29587498     0.47370922    -0.68188612    -0.52018321
O       2.99529701     7.86667602     1.38673200    -0.97563400    -0.38970868     0.03134176
O       3.06555598     3.43504902     1.53003802    -1.05350785    -0.44667020    -0.72915896
O       5.93007203     7.85288699     1.37736303     0.51739279    -0.54936499     0.14399571
O       0.09412301     3.31689200     1.45669998    -0.95058707     0.16899919    -0.43423737
