# total energy = -4988.27486443 eV

CRYSTAL
PRIMVEC
        3.34878972     0.00000000     0.00000000
        0.00000000     4.74733257     0.00000000
        0.00000000    -0.00006494     5.00971612
PRIMCOORD
6 1
Ti      1.67439486     2.37363365     2.50485806     0.00000000     0.00000000     0.00000000
Ti      0.00000000     0.00000000     0.00000000     0.00000000     0.00000000     0.00000000
O       1.67439486     0.92517247     0.97631987     0.00000000    -0.17105890    -0.24244998
O       1.67439486     3.82209477     4.03339619     0.00000000     0.17105890     0.24244998
O       0.00000000     1.44843487     3.48117895     0.00000000     0.17128439    -0.24277728
O       0.00000000     3.29883243     1.52853711     0.00000000    -0.17128439     0.24277728
