# total energy = -19957.50587407 eV

CRYSTAL
PRIMVEC
        5.93400000     0.00000000     0.00000000
        0.00000000     9.29699974     0.00000000
        0.00000000     0.00000000     4.64899994
PRIMCOORD
24 1
Ti      4.46016500     6.64765601     2.27434799     0.96450523     4.35125304     1.80804464
Ti      4.50939600     2.52488802     2.30590998    -1.35832819    -4.00702283     1.28645400
Ti      1.52683200     6.75335901     2.00736500    -0.55377623     4.19123421     1.99141758
Ti      1.48087401     2.42747802     2.29282099     1.11136670    -4.42423049     1.81469711
Ti      2.88195698     4.64849500     4.60911898     1.49429923    -2.71094724    -1.00555265
Ti      2.95070700     9.26503098     0.20625101     0.63316884     0.13086046    -2.31822497
Ti      5.92488201     4.67244102     0.03153103    -1.16560002    -1.98243260    -1.77311593
Ti      5.90078799     9.28488301     0.21378502    -0.42536964    -0.48190744    -2.01185400
O       4.44154399     5.64088899     0.78394302     0.52868765    -1.18705100    -1.01777979
O       4.47440902     0.84768502     1.01423302    -0.64178898     2.34752913     0.76203592
O       1.47538898     5.68190700     0.56228300    -0.55020420     0.70575291     0.85310983
O       1.43716101     0.91500001     1.04535902     0.47726609     1.28318073     0.75706418
O       4.39650000     8.34369402     3.95418598     0.37480913    -0.03427102    -1.05801680
O       4.39033001     3.88835199     3.64148202     0.92846992     1.27537923     1.50086172
O       1.46739798     8.40800699     4.07692801     0.13959681    -0.53689025    -1.68560017
O       1.55504699     3.81847599     3.64051902    -0.74928942     0.55252256     2.05740265
O       2.91863500     5.96751301     3.07698600    -0.42627544     0.33382059    -0.19875483
O       3.11109798     1.65528200     3.16891398    -0.94358878    -0.87588338     0.88845634
O       0.16531201     5.89794001     3.05046501    -0.75067961     0.21232024    -0.20520779
O       5.84447300     1.63598999     3.30120300     0.46335410     0.13913401    -0.12687370
O       3.10979398     7.84253898     1.34991402    -1.02204808    -2.32195873     2.79003337
O       2.83218601     3.34796698     1.50785999     1.69410513     2.63318420    -3.27984619
O       5.82463902     7.96482099     1.54932399     1.02033727    -2.52283575     1.30408818
O       0.11791699     3.30224601     1.45951298    -1.24301751     2.92925943    -3.13283843
