# total energy = -19516.34749560 eV

CRYSTAL
PRIMVEC
        5.17600016     0.00000000     0.00000000
        0.00000000     5.50899976     0.00000000
        0.00000000     0.00000000     9.26300011
PRIMCOORD
23 1
Ti      1.98062599     3.25023900     3.45857101    -1.73404852    -2.01252532     1.53030651
Ti      3.46040101     2.26788600     5.87454302    -0.13334234    -0.26731435    -1.24594548
Ti      4.20475702     2.24483599     1.54508999     1.48195510    -0.77719669    -2.38703029
Ti      0.74356701     3.54988202     7.80396598    -0.62437721    -0.17390845     1.66938036
Ti      2.02231801     0.02634001     1.42756401    -1.17679718     2.04137388    -0.74700962
Ti      3.12297002     5.19025699     7.91473299     0.55161110     1.13014630     2.17115884
Ti      0.83810098     0.48731398     5.91521802    -1.49819445     1.14156431    -2.62292780
Ti      4.54252599     4.84806299     3.18571298     1.68114676     0.96211102     1.61549593
O       1.76809798     1.89899500     4.97305799     0.61316051     1.28288994    -1.74152375
O       3.58063198     3.58480597     4.27921998     0.87237254    -0.32520482     2.44782096
O       4.84723001     2.86628498     9.12686698    -0.80023482     0.21071432     2.03665025
O       3.29728598     0.74721500     0.27223799     1.02052702     0.56753807     0.06228320
O       1.70162501     4.60108998     9.17790100    -1.02377998    -0.45763802    -0.83715998
O       4.44270501     0.92927399     4.86219900    -0.95907866    -0.45141492    -0.25592976
O       1.02032899     4.74460698     4.28472798     0.52507345    -0.23252809     1.06963382
O       0.36273698     3.36450599     2.35976598    -0.47811044     0.00935959     0.14915412
O       5.16511599     2.24490102     6.83114198    -0.90385571    -1.38827898    -1.65630347
O       2.56714298     1.70625902     2.34999499     0.41945995    -0.00351624     0.63105025
O       2.57530999     3.60351498     7.19457102     0.13201720    -1.57694763    -1.78844640
O       0.23076002     0.58261600     2.04511799    -0.95668804     0.82859024    -0.71137437
O       4.86725900     4.96684698     7.16253298     0.38866044     0.28230363    -0.11617611
O       2.27818903     1.01181098     7.04260703     1.23538133    -0.26047419     0.30784472
O       3.01683199     4.15413598     2.02653698     1.36714219    -0.52964333     0.41904806
