# total energy = -4984.96122769 eV

CRYSTAL
PRIMVEC
        3.42283339     0.00000000     0.00000000
       -0.00000762     3.42283339     0.00000000
       -1.71144354    -1.71144735     4.36829666
PRIMCOORD
6 1
Ti     -0.00015073     2.56725468     1.09207404     0.00261173    -0.00258627    -0.00003600
Ti      1.71153287    -0.85586874     3.27622232    -0.00261173     0.00258627     0.00003600
O       0.00003419     0.85570253     0.71155978     0.00082918     0.00454905     2.55239882
O       1.71134785     0.85568332     3.65673663    -0.00082918    -0.00454905    -2.55239882
O      -0.00001933    -0.85568767     2.89570806     0.00456037     0.00079884     2.55303362
O       1.71140133     2.56707348     1.47258835    -0.00456037    -0.00079884    -2.55303362
