# total energy = -19517.92390402 eV

CRYSTAL
PRIMVEC
        5.17600016     0.00000000     0.00000000
        0.00000000     5.50899976     0.00000000
        0.00000000     0.00000000     9.26300011
PRIMCOORD
23 1
Ti      1.87707002     3.26813398     3.47714200     0.22740182     0.61616510     1.35539353
Ti      3.39166199     2.22344802     5.90351198     1.62595853     0.53897927    -0.92536737
Ti      4.31561701     2.16826198     1.33191998     0.02098612     0.13717612    -0.18111423
Ti      0.79332100     3.33226201     7.89907802    -1.21312688     0.54517229    -0.78033781
Ti      1.86517301     0.36390900     1.31018498     0.73048230    -0.49166041    -0.75118483
Ti      3.32997898     5.12161503     8.01116703     1.17810999    -1.83788770     0.42324050
Ti      0.81680498     0.53811601     5.77046201    -1.09314914    -0.10949047    -0.31525362
Ti      4.47811602     4.88055098     3.30744798     0.51419434    -0.33885224     2.76338696
O       1.90874901     1.90984499     4.81424300    -1.64951061    -0.69701064    -0.01073025
O       3.64732398     3.57103699     4.51819199     0.00177560    -0.12047037     0.24627321
O       4.58940802     3.27723302     9.17006499    -0.75157153     0.56523719     1.16524624
O       3.48064098     0.75092702     0.17983898     0.38360642     0.91528504     0.32541951
O       1.80105599     4.61990102     9.01612500    -0.69992910     0.38650585     1.68021063
O       4.40192598     0.81843400     4.76654101    -0.22571672     0.61864339     0.12828550
O       1.02769402     4.72637899     4.54893999     0.66152041    -1.06466670    -1.12324237
O       0.25570300     3.29582598     2.46028400    -0.12876809     0.16212740     0.25157842
O       5.10235102     1.81007100     7.22647098    -0.06663016    -0.38222934    -1.98682456
O       2.65594099     2.10013898     2.19882302    -0.20810028    -0.63134027    -1.00219967
O       2.46526901     3.35342899     7.09259999     1.37778887     0.14532626    -0.12357575
O       0.11566000     0.55185202     2.05522098     0.77921553     0.71441342    -1.05885858
O       5.13362301     4.64720101     6.91239799    -0.86151888     0.01023171     1.05048578
O       2.51699402     0.68783099     6.90634399    -0.68577132     0.39616292    -1.16645466
O       2.76109602     4.79257298     2.46491398     0.08275227    -0.07781755     0.03562368
