# total energy = -19519.33633507 eV

CRYSTAL
PRIMVEC
        7.60600008     0.00000000     0.00000000
        0.00000000     7.60600008     0.00000000
       -1.89786986    -1.89786986     4.85670466
PRIMCOORD
23 1
Ti      3.78381001     6.65169300     1.24678399     1.01620062     0.91838682    -0.48340485
Ti      3.81741599     2.94207999     1.19337000    -0.18129292    -1.05876062     1.21985598
Ti      0.08766901     6.60796999     1.26170499    -1.06423501     0.94015559     0.14618527
Ti     -0.02663402     2.88115798     1.02559398     0.32717686    -1.05928538     0.81205212
Ti      5.62462520     2.87217525     3.67939482    -1.00154995    -0.46389789    -1.24760950
Ti      5.67256723    -1.04290977     3.61102681     0.34186326     0.50500701    -0.17170656
Ti      1.93788921     2.85390323     3.70616680     0.91476696     0.57677373    -1.20893007
Ti      1.90545620    -0.95520277     3.66477281    -0.48026142    -0.24534838     1.06778057
O       4.04053400     4.77292098     0.80886801    -0.71527602    -0.34619223     0.15746676
O       3.84550800     0.95571502     0.77886599    -0.19332903    -0.01079170     0.20045973
O      -0.22197499     4.78432703     0.76573901     0.81211820    -0.51389146     0.31811783
O      -0.02776201     0.87729000     0.70926399     0.31922134    -0.30771128     0.59977483
O       5.85066924     4.68674722     3.96084282     0.33482023     0.49065203     0.28531002
O       5.64489020     0.90964125     3.99414781     0.49941615     0.80899097     0.11987207
O       1.72857220     4.75688924     4.07689282    -0.13621632    -0.23674238     0.05543043
O       1.85260722     1.00128623     4.06593081    -0.33517170    -0.04049155     0.03770139
O       3.77442225     2.93050820     3.29724381     0.30795682     0.03310991    -0.95249612
O       3.75340423    -0.85290778     3.22632284     0.49441612    -0.36533590     0.39867952
O       0.02191021    -0.82644077     3.20271280    -0.19094973    -0.18882034    -0.29003726
O       5.66217700     6.60130998     1.68566100     0.54932745     0.23176370    -0.41746298
O       5.79514903     2.76247897     1.68893799     0.11369731     0.09732272     0.04417980
O       1.94409101     6.40053701     1.69765899    -0.87852751     0.20422460    -0.83677046
O       1.88296998     2.91062299     1.60892998    -0.85417118     0.03088205     0.14555149
