# total energy = -19961.91311029 eV

CRYSTAL
PRIMVEC
        7.60600008     0.00000000     0.00000000
        0.00000000     7.60600008     0.00000000
       -1.89786986    -1.89786986     4.85670466
PRIMCOORD
24 1
Ti      3.81251798     6.57746102     1.21270100     0.01753853     0.50353506     0.87533162
Ti      3.79691202     2.78465700     1.14944998    -0.94036128    -0.08846012     0.53209128
Ti      0.02178602     6.76184600     1.26136399    -0.04069672    -0.78362317    -0.70666180
Ti     -0.05208099     2.88615399     1.24388701     1.14434136     0.87409107    -0.72071828
Ti      5.66191225     2.91919021     3.61335080     0.29365429    -0.49338280     1.21017834
Ti      5.71345221    -0.90922780     3.64189182    -0.57589955     0.51198139    -0.09316216
Ti      1.91361125     2.77335822     3.66341181     0.00905543     0.45456427    -0.86597486
Ti      1.88363023    -1.05814278     3.67801483     0.58113406    -0.08526347    -0.76679272
O       3.76162801     4.76264901     0.81549903     0.48673392    -1.19186334    -0.55392278
O       3.79875001     0.87277701     0.78111700     0.11324685     0.51292679    -0.23637163
O       0.02392998     4.77466298     0.75144201    -0.22894834     0.12777128    -0.19446803
O      -0.06084300     1.02991202     0.78783703     0.29286881    -0.52777131     0.58033368
O       5.64691822     4.83023522     4.07215182     0.05355173    -1.00739690     0.16393874
O       5.76009225     0.95106122     3.94557479     0.06701429     0.96164050     0.79199957
O       1.95967221     4.67013523     3.98442582     0.10219162     0.54139328     0.56498136
O       1.82086124     0.84627920     4.03629683     0.18350587     1.19999471     0.58195656
O       3.81794120     2.72191320     3.26326481    -0.16393823     0.17679426    -0.44649820
O       3.79379421    -0.89693178     3.21281379    -0.65202635    -0.30676666    -0.18418593
O       0.06723425     2.96234425     3.17432980    -0.67088822    -0.39718236     0.08478884
O      -0.01247075    -0.96275376     3.21670779     1.17850619    -0.23150041     0.09092221
O       5.72446603     6.68119002     1.72581201    -0.30869344    -0.18927414    -1.32581041
O       5.71516902     2.86570098     1.62403699    -0.68196917     0.24391808    -0.15257472
O       1.92124902     6.67224301     1.56839400    -0.48086717    -0.01245983     0.44255592
O       1.95812902     2.96429501     1.59751701     0.22094526    -0.79366616     0.32806363
