# total energy = -19075.86509460 eV

CRYSTAL
PRIMVEC
        7.60600008     0.00000000     0.00000000
        0.00000000     7.60600008     0.00000000
       -1.89786986    -1.89786986     4.85670466
PRIMCOORD
22 1
Ti      3.82537498     6.61591400     1.11686399     0.55820162     1.18400244     0.22802865
Ti      3.73689099     2.82823401     1.26358600     1.24348057    -0.10956092    -0.32976956
Ti      0.04967699     6.64686600     1.08930200    -0.82734351     0.43524473     0.29214942
Ti      0.00983402     2.88348202     1.14824298    -1.02516040    -1.01503334     0.51169137
Ti      5.72062520     2.80444823     3.50939382    -0.88614620     0.32348886     0.24634057
Ti      6.03511122    -0.85329578     3.70810380     0.01164504    -0.98501081     0.50145015
Ti      1.90414220     2.80391223     3.66470581     0.53574636    -0.04180615    -0.44597652
Ti      1.43965523    -0.98929179     3.72895883     1.45105197     1.04822064     0.00635834
O       3.89135798     4.80252702     1.01588998    -0.63622588    -0.14966757    -0.99399785
O       3.87983197     0.98691599     0.71325002    -0.83085229    -0.27753578     1.22390675
O      -0.07680600     4.66233601     0.79475602     0.35462262     1.41566072    -0.35869782
O      -0.03376701     0.98231898     0.82194398     0.29179152    -0.27803509    -0.31599435
O       5.68178322     4.78344124     4.07363780     0.37827472    -0.13302224    -0.91301810
O       5.51732822     0.95057221     3.81484679     0.62806314    -0.61143067     1.61204166
O       2.14940522     4.85285421     4.06689481    -1.20611420    -0.94694022    -0.10256880
O       2.12319322     1.03621325     4.14833381    -1.36174364    -0.79813011    -0.50777635
O       3.76665821     2.81496722     3.23123080    -0.14885767     0.48884814     0.02590310
O      -0.07008879     2.67805324     3.15055884     1.86257981     0.69647405     0.65357595
O       5.74859497     6.65706102     1.90684101    -0.36644173    -0.15668128    -1.56343802
O       5.67228899     2.72235702     1.61040401     0.26729713     0.71248509     0.00868159
O       1.83915998     6.81866699     1.82361698     0.48290015    -0.82151353     0.14756544
O       1.90258600     2.89085600     1.65914801    -0.77676989     0.01994277     0.07354515
