# total energy = -4983.18317045 eV

CRYSTAL
PRIMVEC
        3.48600489     0.00000000     0.00000000
        0.00000000     5.46204704     0.00000000
        0.00000000    -0.00007088     5.46204704
PRIMCOORD
6 1
Ti      1.74300238     2.73098802     2.73102346     0.00000000     0.00000000     0.00000000
Ti      0.00000000     0.00000000     0.00000000     0.00000000     0.00000000     0.00000000
O       1.74300238     1.06445869     1.06447250     0.00000000    -0.91668578    -0.91668578
O       1.74300238     4.39751734     4.39757441     0.00000000     0.91668578     0.91668578
O       0.00000000     1.66650059     3.79549707     0.00000000     0.91689609    -0.91689609
O       0.00000000     3.79547544     1.66654984     0.00000000    -0.91689609     0.91689609
