# total energy = -19894.63249206 eV

CRYSTAL
PRIMVEC
        8.37824971     0.00000000     0.00000000
        0.00003161     5.35019457     0.00000000
        0.00000000     0.00000000    12.79592484
PRIMCOORD
24 1
Ti      3.03673104     3.17052032     4.74719687     0.52197116    -0.61502225     2.14539047
Ti      5.34154973     2.17967418     8.04872810    -0.52197116     0.61502225    -2.14539047
Ti      7.22571175     2.17967598     1.65071449     0.52140526     0.61506827    -2.14626104
Ti      1.15256909     3.17051873    11.14521055    -0.52140526    -0.61506827     2.14626104
Ti      3.03671551     0.49542311     1.65076582     0.52453069    -0.70141700    -2.14373287
Ti      5.34156527     4.85477153    11.14515929    -0.52453069     0.70141700     2.14373287
Ti      1.15255349     0.49542117     8.04867678    -0.52399539    -0.70151727    -2.14470887
Ti      7.22572728     4.85477347     4.74724813     0.52399539     0.70151727     2.14470887
O       2.65177991     1.88389440     6.52966253     0.63068387     1.51465775    -2.00470299
O       5.72650093     3.46630003     6.26626245    -0.63068387    -1.51465775     2.00470299
O       1.53741590     1.88391601     0.13174122    -0.63030155     1.51440012    -2.00479169
O       6.84086501     3.46627849    12.66418334     0.63030155    -1.51440012     2.00479169
O       5.72648540     0.79120267     0.13169970    -0.63017376    -1.51541031    -2.00285360
O       2.65179544     4.55899176    12.66422487     0.63017376     1.51541031     2.00285360
O       6.84084941     0.79118114     6.52970399     0.62962740    -1.51588956    -2.00398797
O       1.53743130     4.55901336     6.26622092    -0.62962740     1.51588956     2.00398797
O       0.30442030     3.25429163     3.45649853    -2.15286312     0.68485883     0.13674443
O       8.07386054     2.09590280     9.33942638     2.15286312    -0.68485883    -0.13674443
O       4.49355480     2.09585306     2.94150460    -2.15322308    -0.68512006    -0.13695603
O       3.88472597     3.25434143     9.85442011     2.15322308     0.68512006     0.13695603
O       0.30440470     0.57919428     2.94146375    -2.15299476     0.68506992    -0.13674880
O       8.07387607     4.77100016     9.85446095     2.15299476    -0.68506992     0.13674880
O       3.88471044     0.57924408     9.33946715     2.15373961     0.68479276    -0.13680356
O       4.49357034     4.77095035     3.45645769    -2.15373961    -0.68479276     0.13680356
