# total energy = -19517.71865458 eV

CRYSTAL
PRIMVEC
        5.17600016     0.00000000     0.00000000
        0.00000000     5.50899976     0.00000000
        0.00000000     0.00000000     9.26300011
PRIMCOORD
23 1
Ti      1.84884800     3.28477501     3.44331498    -0.31124347    -0.78058901     2.48012071
Ti      3.32848400     2.21256898     5.84463900     0.50705541     0.51008469    -2.32534513
Ti      4.31644702     2.10920998     1.47099602     1.28949947    -0.47510250    -0.75426450
Ti      0.94051101     3.32803901     7.79441698    -2.23978547     0.95964301     1.76898082
Ti      2.02304902     0.36992998     1.28469298    -1.56747260    -0.77660740    -0.40274649
Ti      3.32431800     5.20530298     7.92052097     0.09005446    -0.98076746     1.47890192
Ti      0.69776799     0.56308402     5.90455002    -0.70528060    -0.14042085    -3.12768054
Ti      4.49094602     4.84848601     3.38453398     0.45737165     0.61640241     2.25729700
O       1.68752598     1.95203698     4.90235202    -0.14793259     0.42598644    -1.11052363
O       3.52397297     3.54802498     4.46914599     0.21958000     0.14937549     0.43954233
O       4.98613501     2.97005399     0.00811499     0.27692180     0.07562826    -0.14394352
O       3.42476600     1.00848600     0.12950899    -0.58042573    -1.04946222    -1.13729628
O       1.83291902     4.55402199     9.21742001     0.64392968     0.55542482    -1.23472081
O       4.28893901     0.78023502     4.73172300    -0.36433162     0.24247620    -0.17802788
O       0.90077700     4.68772302     4.53669297     0.50761617    -0.47326262    -0.55989032
O       0.15940602     3.17858697     2.63392801    -0.01931439     0.62458392    -0.03227687
O       5.09406997     2.09739302     6.72376599    -0.57807522    -0.10834170     0.88229495
O       2.66467199     1.88903202     2.32786998    -0.37111291     0.82294872    -0.06758584
O       2.60587003     3.55892402     7.09699798     1.31788086    -0.98289094    -0.37479293
O       0.15757898     0.52866098     1.98463102     0.20631439     0.33490765    -0.54614519
O       5.10758500     4.76041298     7.09908601    -0.65706443     0.37378223     1.09141724
O       2.45004299     0.65218699     6.66582198     0.55900174    -0.08420057     1.61911991
O       2.67212302     4.67180299     2.43099001     1.46681413     0.16040167    -0.02243571
