# total energy = -19960.91400742 eV

CRYSTAL
PRIMVEC
        7.60600008     0.00000000     0.00000000
        0.00000000     7.60600008     0.00000000
       -1.89786986    -1.89786986     4.85670466
PRIMCOORD
24 1
Ti      3.86130998     6.60092098     1.08175398    -0.54946038     0.34816118     2.10519999
Ti      3.79826502     2.70059101     1.21408703    -0.16337515    -0.21366801     0.56069353
Ti     -0.04793198     6.68008198     1.20399900     0.32279132     1.55792789    -0.00446472
Ti     -0.03494099     2.95696998     1.29002200     0.34769324    -1.67904951    -1.31565454
Ti      5.63863924     2.95525322     3.66872581    -0.16242950    -1.06125099    -0.40493836
Ti      5.69936424    -0.87030978     3.66170479    -1.02227305     0.89339723     0.51068838
Ti      1.84912322     2.76072422     3.73783382     1.03069985    -0.07838499    -1.49686185
Ti      1.93497424    -0.98726679     3.64003583     1.24367854     0.22213054    -1.28712274
O       3.95405602     4.72518999     0.74546602    -0.47447464    -1.11115175     0.52700770
O       4.05462102     0.84242002     0.74112999    -0.78859517     1.95708331    -0.20619664
O      -0.14176600     4.81420199     0.81856799     0.56881411     0.03141812     0.09283588
O      -0.17569198     1.05961701     0.76843802     0.71783813    -1.15098690    -0.17036599
O       5.48526124     4.85554724     4.03397083     0.81356316    -0.81331556     0.25037283
O       5.55447323     1.05584922     4.06869380     0.88234431     0.02101569     0.44494268
O       2.11731020     4.76626425     4.02638682    -0.78344293    -0.96339991    -0.71663537
O       2.03426223     0.91596222     4.05038279    -0.81293350    -0.04328685     0.65891562
O       3.83758622     2.83713525     3.19003980    -1.14412848     0.26285529    -0.67428542
O       3.78289120    -0.82442577     3.19960780    -0.30199675    -0.39086516    -0.63224916
O       0.04390123     2.87726022     3.27832583    -0.20765008     0.60442904     0.40615629
O      -0.00660080    -0.88915875     3.15108680     1.11428258    -0.16721767     0.72331587
O       5.71699600     6.70821902     1.70134799    -0.19705302    -0.41471524    -0.62703753
O       5.76231998     2.70071298     1.68580801    -1.02355321     0.90553516     0.32528761
O       1.97280602     6.65639802     1.43304999    -0.68675194    -0.15617555     0.61291703
O       1.86247600     2.46001401     1.56291998     1.27641307     1.43951440     0.31747916
