# total energy = -19517.86575055 eV

CRYSTAL
PRIMVEC
        7.60600008     0.00000000     0.00000000
        0.00000000     7.60600008     0.00000000
       -1.89786986    -1.89786986     4.85670466
PRIMCOORD
23 1
Ti      3.82032599     6.67235499     1.27668700    -0.26906605    -1.32351544     0.31596556
Ti      3.62153802     2.71777397     1.17901300     1.12052368     0.72907822     1.90827656
Ti      0.00512000     6.70249301     1.15813500     0.28800840     0.78646372    -0.81723007
Ti     -0.02321098     2.97695700     1.02954397    -0.65554465    -0.75743313     0.95318029
Ti      5.66572523     2.96854324     3.51731979    -1.24632729     1.47825065    -0.56654125
Ti      5.77131123    -0.80907979     3.59733980    -0.33141429    -1.23145860     0.74864535
Ti      1.86380821     2.70435922     3.79965284     1.86960407     0.34373477    -0.77207454
Ti      1.89883424    -1.11523878     3.67503281     0.89794217     0.34455778    -0.47240361
O       3.80759700     4.60698899     0.80261001    -1.10965511     0.34801231     1.29233643
O       4.01357999     0.84046302     0.82710002    -1.04053226     0.96744143     0.67289728
O      -0.02075999     4.81433100     0.82789601     0.48870647     0.72980662    -0.51787539
O      -0.19986601     0.99409899     0.72885202     0.71017675     0.84900558    -0.78254922
O       5.97826425     4.86691323     4.04758783    -0.08970788    -1.23174296    -0.19479662
O       5.82808925     1.17792422     3.93486482     0.36976514    -2.09732650    -0.06527468
O       1.91300724     4.67405723     4.18621084    -0.97275847    -0.69543558    -0.55454139
O       2.08643525     0.81667724     4.15884380    -0.99125114     0.20993734    -0.46080871
O       3.74979524     2.77691424     3.31629482     0.63905487     0.33147471    -1.09830009
O       3.80232920    -1.24662576     3.36367884     0.76943222     1.17389672    -1.87794164
O       0.08905725    -0.76435775     3.40098281    -1.58342552    -0.29782307    -0.86977470
O       5.72007502     6.67621602     1.48234698    -0.09299606    -0.36902415     1.99021225
O       5.75540998     3.00337199     1.49183301    -0.22495438    -0.31920823     1.88030912
O       1.82450198     6.70403302     1.62233002     1.51458267    -0.15063662     0.74979901
O       1.73623500     2.70808500     1.84358300    -0.06016281     0.18194418    -1.46150942
