# total energy = -19960.27907276 eV

CRYSTAL
PRIMVEC
        5.93400000     0.00000000     0.00000000
        0.00000000     9.29699974     0.00000000
        0.00000000     0.00000000     4.64899994
PRIMCOORD
24 1
Ti      4.48433501     7.05629298     2.46574601    -1.93120721    -0.64110070    -0.96150449
Ti      4.44695600     2.34773900     2.37204898     0.42970117    -2.04201125     0.79737061
Ti      1.45764101     6.99021901     2.25108700     1.97916473     0.70149002     0.76004872
Ti      1.48197401     2.41083402     2.25254398     0.27799986    -2.44821614     0.58647476
Ti      2.91688602     4.58178401     0.08170603     1.84593037     0.49761843    -1.07096488
Ti      2.96236700     9.21524398     4.59704897    -0.75876728     1.60364854     0.88147759
Ti      0.01430202     4.71603898     0.02159699    -1.62192781    -0.62694368    -0.36548785
Ti      0.00159600     9.26818398     4.62837801     0.93841264     1.97625064     0.48202417
O       4.29481002     5.59598698     0.92849901     1.41515962    -0.36847959    -0.26802038
O       4.38033099     0.89835098     0.78150600     1.19023737     0.20549395     0.29783027
O       1.50939502     5.43309802     0.95918499    -0.88161078     0.64068881     0.20922488
O       1.53065599     0.88737998     0.84457499    -0.31774167     0.13235401    -0.69645605
O       4.49405902     8.45520400     3.69716602    -0.00854892    -1.32339023    -0.38452096
O       4.46419299     3.75946500     3.78580702     0.28513673    -0.17110235    -0.42742909
O       1.52681300     8.26822800     3.82173498    -1.02027890     0.22437100    -0.54319974
O       1.42748802     3.63590402     3.71858399     0.06545697     1.25514824     0.86910775
O       2.83104802     6.17194598     3.26365698     1.41449936    -1.06123479     0.17659474
O       2.98795098     1.32427602     3.10655198     0.34405461     0.66337057     0.16331319
O       0.02637700     6.11126200     3.25850401    -0.53858641    -0.64540653     0.37669889
O       0.05232499     1.26945802     3.02309401    -0.09946548     0.59159512     0.83780405
O       2.96684199     7.94675298     1.52022199     0.18821331    -0.36511375    -0.60489801
O       3.11531198     3.21018902     1.40048500    -1.27803595     0.46247890    -0.31575241
O       0.02206600     7.94175702     1.41240700    -0.81046524    -0.80132779     0.34183601
O       0.06878299     3.16567701     1.42170998    -1.10733135     1.53981857    -1.14157151
