# total energy = -39481.10199252 eV

CRYSTAL
PRIMVEC
        5.93188753     0.00000000     0.00000000
        0.00000000     9.29428401     0.00000000
        0.00000000    -0.00005292     9.29428401
PRIMCOORD
47 1
Ti      4.44891576     6.97639041     6.94096792     0.00000000    -0.01124678    -0.01382843
Ti      4.44891576     7.04889000     2.40176168     0.00000000     0.00871964     0.00871964
Ti      4.44891576     2.41261690     7.05979910     0.00000000     0.01457096     0.01457096
Ti      4.44891576     2.29381266     2.32928793     0.00000000    -0.01382843    -0.01124678
Ti      1.48297199     6.93929389     6.97855030     0.00000000     0.00535792    -0.02884187
Ti      1.48297199     7.02931701     2.38218857     0.00000000    -0.02307360    -0.02307360
Ti      1.48297199     2.14118264     6.78836329     0.00000000     0.01068422     0.01068422
Ti      1.48297199     2.33139524     2.29219162     0.00000000    -0.02884187     0.00535792
Ti      2.96314432     4.64791920     4.63507519    -0.00032010    -0.00706257    -0.00692553
Ti      3.08389966     4.76654747     0.11940615     0.01431359     0.00043195     0.00043195
Ti      3.01068875    -0.00427176     4.64289668     0.00745954     0.00583152     0.00583152
Ti      2.96314432    -0.01206682     0.00080358    -0.00032010    -0.00692553    -0.00706257
Ti      0.00279945     4.64791920     4.63507519     0.00032010    -0.00706257    -0.00692553
Ti     -0.11795590     4.76654747     0.11940615    -0.01431359     0.00043195     0.00043195
Ti     -0.04474499    -0.00427176     4.64289668    -0.00745954     0.00583152     0.00583152
Ti      0.00279945    -0.01206682     0.00080358     0.00032010    -0.00692553    -0.00706257
O       4.44891576     5.54498035     5.54132390     0.00000000    -0.00643110     0.00033476
O       4.44891576     5.62904081     0.98190439     0.00000000    -0.00221912    -0.00221912
O       4.44891576     0.92121532     5.56838903     0.00000000     0.00599607     0.00599607
O       4.44891576     0.89417678     0.89786990     0.00000000     0.00033476    -0.00643110
O       1.48297199     5.56682731     5.51975911     0.00000000    -0.00478637     0.01035409
O       1.48297199     5.45399297     0.80685556     0.00000000    -0.00574076    -0.00574076
O       1.48297199     0.87487466     5.52204811     0.00000000     0.01506976     0.01506976
O       1.48297199     0.87261187     0.91971673     0.00000000     0.01035409    -0.00478637
O       4.44891576     8.37699117     8.36085249     0.00000000    -0.00053068     0.00730708
O       4.44891576     8.38604214     3.73892142     0.00000000     0.00415568     0.00415568
O       4.44891576     3.76350729     8.41069718     0.00000000    -0.00858723    -0.00858723
O       4.44891576     3.71368925     3.72989677     0.00000000     0.00730708    -0.00053068
O       1.48297199     8.38419264     8.35717005     0.00000000    -0.00898395    -0.00064175
O       1.48297199     8.36473899     3.71761815     0.00000000     0.01159439     0.01159439
O       1.48297199     3.71000677     3.73709822     0.00000000    -0.00064175    -0.00898395
O       2.94073930     5.98946552     7.87475336     0.00049211    -0.01001214     0.00498126
O       2.96724256     6.04777594     3.21338129    -0.00264232     0.01036232     0.01294731
O       2.92253826     1.48636976     7.91825374     0.00463493    -0.00214944     0.00388520
O       2.97384761     1.40446285     3.21844504     0.00712633    -0.00514838     0.00324216
O       0.02520446     5.98946552     7.87475336    -0.00049211    -0.01001214     0.00498126
O      -0.00129879     6.04777594     3.21338129     0.00264232     0.01036232     0.01294731
O       0.04340551     1.48636976     7.91825374    -0.00463493    -0.00214944     0.00388520
O      -0.00790385     1.40446285     3.21844504    -0.00712633    -0.00514838     0.00324216
O       2.97384761     7.86555259     6.05162318     0.00712633     0.00324216    -0.00514838
O       2.96724256     7.86051532     1.40065223    -0.00264232     0.01294731     0.01036232
O       2.92253826     3.27107682     6.13355684     0.00463493     0.00388520    -0.00214944
O       2.94073930     3.22760372     1.34236836     0.00049211     0.00498126    -0.01001214
O      -0.00790385     7.86555259     6.05162318    -0.00712633     0.00324216    -0.00514838
O      -0.00129879     7.86051532     1.40065223     0.00264232     0.01294731     0.01036232
O       0.04340551     3.27107682     6.13355684    -0.00463493     0.00388520    -0.00214944
O       0.02520446     3.22760372     1.34236836    -0.00049211     0.00498126    -0.01001214
