# total energy = -4969.77722663 eV

CRYSTAL
PRIMVEC
        4.58754753     0.00000000     0.00000000
       -0.00000694     2.75252852     0.00000000
       -2.29379960    -1.37631447     4.99603713
PRIMCOORD
6 1
Ti     -0.00019664     2.06449423     1.24900895    -0.01322730    -0.01884336    23.73166045
Ti      2.29393747    -0.68828028     3.74702757     0.01322730     0.01884336   -23.73166045
O       0.00004859     0.68812329     0.81381352     0.01135400     0.01385182   -14.49349259
O       2.29369214     0.68809060     4.18222305    -0.01135400    -0.01385182    14.49349259
O      -0.00001890    -0.68813245     3.31183208    -0.00195121    -0.00017561    -0.91374161
O       2.29375957     2.06434629     1.68420443     0.00195121     0.00017561     0.91374161
