# total energy = -39033.42069777 eV

CRYSTAL
PRIMVEC
        5.93200024     0.00000000     0.00000000
        0.00000000     9.29399984     0.00000000
        0.00000000     0.00000000     9.29399984
PRIMCOORD
46 1
Ti      4.36441202     7.13894300     7.00260800     1.29106373     0.44106983    -1.51356194
Ti      4.47670999     6.95473101     2.31873898     0.37396607    -1.28125240     0.60111617
Ti      4.39092300     1.96847698     7.08482299    -0.08415198     1.60363106     0.44030698
Ti      4.57848200     2.46773899     2.22494400    -0.29084561    -0.24903740     0.63259677
Ti      1.45978498     6.91435198     7.13150399    -0.23423581    -0.07243289    -0.80345075
Ti      1.53569302     6.97613898     2.21222200    -0.29319740    -1.73124524     0.76172225
Ti      1.42919102     2.54016399     6.66722398    -0.11110384     0.14592918     0.67204008
Ti      1.58751799     2.28999698     2.54381198     0.81658190    -0.45621543     0.01137611
Ti      3.03820398     4.70648701     4.61073699    -0.13912064    -0.28750086     0.15913180
Ti      3.00311598     4.81772801     9.05787100    -1.08062992    -0.74462286     0.87031514
Ti      2.84042699     0.03955198     4.90799998    -0.57971919     0.82217790    -2.16932307
Ti      2.98195100     0.03206602     0.06460402     0.14474879     1.37326990     0.62187784
Ti      5.92397299     4.70856599     4.75263301     0.43308629     0.67023079    -1.11827680
Ti      5.85458902     4.60362098     9.00847299     0.53371031    -0.87119189     1.30585247
Ti      5.84486602     8.97654799     4.66505100     0.83283462     0.11276888     0.72511384
Ti      0.04447200     0.01644498     0.08285201    -0.12728842     1.00361301    -0.02385265
O       4.47714498     5.59889502     5.64408099    -0.34028512     0.27007469    -1.49436582
O       4.43527398     5.45418298     0.75788797    -0.79811468     0.39327789     0.38165238
O       4.46027602     0.73195099     5.65025500     0.19623052     0.24327967     0.14975859
O       4.42277101     0.81332501     1.14277298     1.14383280     0.33496422    -0.81130548
O       1.68164698     5.57623200     5.62424800    -1.39503661     0.22598000    -0.33421217
O       1.47494500     5.65510301     0.69973600     0.85718889    -0.77772017    -0.07027805
O       1.35870498     1.10470799     5.29966999    -0.34564972    -0.39489742     0.32421057
O       1.63157099     1.03666199     1.14706397    -0.94148948    -1.45624406    -1.22935878
O       4.46027602     8.32047901     8.46743900     0.23406201     1.03950665     0.28775232
O       4.47193099     8.13844199     3.80426202    -0.78229082     0.98504552    -0.11734005
O       4.37721398     3.69412701     8.13028001     0.00586006     0.28735174     1.69560254
O       4.54412400     3.72732399     3.65271799    -0.24910682     0.76113963     0.44550678
O       1.53532201     8.51439999     8.53743502    -1.12499586    -1.87260969    -0.68922097
O       1.43119998     8.17973199     4.03093002     1.09572847     0.73895306    -2.09922629
O       1.37602902     3.77040801     8.23559200     1.05980912     0.00115777    -0.32571313
O       1.47623302     3.61119599     3.78632699     0.10214688     1.62794779     0.64817226
O       3.09493098     5.95872099     7.67861098    -0.90815845     0.66814357     0.75898145
O       3.01040000     5.97664502     3.09177799    -0.15357102    -0.13299267     0.11115886
O       2.73030902     1.32976999     7.92868898     1.93470880     1.24193662    -1.39965766
O       3.18889302     1.48960702     3.42446601    -0.82010791    -0.24917213    -0.85754498
O       5.83236601     6.20323602     7.79870098     0.04365478    -1.46516476     1.39012118
O       0.04324997     6.03027301     3.33952502    -0.14960329     0.55822141    -1.60296669
O       0.08581800     1.39789002     7.89865701    -1.20893984    -0.12184951    -0.09883299
O       2.74601500     8.01405099     6.26051702     1.29074852     0.34432792    -0.18295694
O       2.95777898     7.85639099     1.39061701     0.48602969    -0.14435567     0.68205761
O       2.97101598     3.38630698     6.01601703    -0.42950397    -2.27848316     0.62752398
O       0.12159001     7.88291499     6.12634498    -1.04070710     0.29500566     0.33819815
O       0.06341999     7.66000199     1.33591702    -0.87095792     1.77072480    -0.08485286
O       5.69763902     3.36659402     5.95975601     1.51125618    -2.62075522     1.74268331
O       0.01704702     3.31591699     1.26267502     0.11156278    -0.75198650     0.64146862
