# total energy = -4982.18612680 eV

CRYSTAL
PRIMVEC
        4.36566482     0.00000000     0.00000000
        0.00000000     3.29349841     0.00000000
        0.00000000    -0.00008707     5.77426784
PRIMCOORD
6 1
Ti      2.18283235     1.64670550     2.88713398     0.00000000     0.00000000     0.00000000
Ti      0.00000000     0.00000000     0.00000000     0.00000000     0.00000000     0.00000000
O       2.18283235     0.64183730     1.12531978     0.00000000     0.18119008     2.31415851
O       2.18283235     2.65157369     4.64894818     0.00000000    -0.18119008    -2.31415851
O       0.00000000     1.00483358     4.01245495    -0.00000000    -0.18132275     2.31462491
O       0.00000000     2.28857741     1.76181300    -0.00000000     0.18132275    -2.31462491
