# total energy = -19515.92914624 eV

CRYSTAL
PRIMVEC
        5.17600016     0.00000000     0.00000000
        0.00000000     5.50899976     0.00000000
        0.00000000     0.00000000     9.26300011
PRIMCOORD
23 1
Ti      1.97325497     3.19240501     3.41497701     0.10627993    -0.68241808     1.68382123
Ti      3.25653499     2.30167100     5.97602599     0.64056051    -0.15852554    -3.06431156
Ti      4.21885599     2.21823499     1.53650499     0.18042749    -0.57415557    -1.84395833
Ti      0.84537198     3.36735498     7.78103498    -0.55433493     0.35279919     2.51636068
Ti      1.98847200     0.10958398     1.40130798     0.97926465     1.13392762    -0.81897431
Ti      3.31069898     5.28914000     7.89346102    -0.26956484     0.23058433     1.23320181
Ti      0.64128700     0.56568101     5.84787000    -1.55599570     0.37560026    -3.07081645
Ti      4.63165198     4.82132398     3.41101702    -0.75703410     1.06726995     1.94167932
O       1.74438200     1.99850001     4.76218403    -1.11287619     0.17525237     0.36411257
O       3.65046301     3.59346802     4.52703099    -0.76428281    -0.37034621    -0.22224187
O       4.90548898     3.26117202     0.07852101    -0.20320336    -1.25535033    -0.78056664
O       3.10877400     1.11061800     0.17447201     1.33292439     0.36912288    -0.41178084
O       1.72313998     4.82008602     9.05046400     0.23506756    -1.28011314    -1.42504088
O       4.19371500     0.65976999     4.85940399     1.07105281    -0.10912332    -1.13860446
O       1.08899000     4.68830702     4.33340398     0.00344836     0.76830530     0.31654817
O       0.12719199     3.18906902     2.63754102     2.16414667    -0.40277709     0.23637497
O       5.06010399     2.20557897     6.62737799     0.60490418    -0.60186076     1.29840963
O       2.73821302     1.56621802     2.62099502     0.62495571     0.42785538    -1.60595997
O       2.65307502     3.69453299     7.02031300    -0.75671091    -0.91470886     0.97270011
O       0.31188998     0.50543201     1.96714901    -2.17785451     0.87267542    -0.01335611
O       5.15899500     4.71761201     7.01788498    -1.43632006     1.71118703     0.25023476
O       2.32754999     0.72152403     6.55854198     1.70881544    -0.39931098     3.05588734
O       3.07629299     4.27324399     2.08090503    -0.06366954    -0.73589036     0.52628033
