# total energy = -4984.28743053 eV

CRYSTAL
PRIMVEC
        3.47484916     0.00000000     0.00000000
        1.18005111     3.26834148     0.00000000
       -2.32748183    -1.63419300     4.50630190
PRIMCOORD
6 1
Ti      0.88493815     2.45138147     1.12657552     0.00123053    -0.00132335    -0.00064355
Ti      1.44247968    -0.81723342     3.37972647    -0.00123053     0.00132335     0.00064355
O       0.29504898     0.81708087     0.73403980     0.00077416     0.00153109    -0.32661764
O       2.03236869     0.81706707     3.77226229    -0.00077416    -0.00153109     0.32661764
O      -0.29502080    -0.81706113     2.98719075     0.00150744     0.00078624    -0.32684493
O       2.62243841     2.45120903     1.51911134    -0.00150744    -0.00078624     0.32684493
