# total energy = -19520.22249310 eV

CRYSTAL
PRIMVEC
        7.60629642     0.00000000     0.00000000
       -0.00001693     7.60629642     0.00000000
       -1.90160393    -1.90160817     4.85366295
PRIMCOORD
23 1
Ti      3.78790589     6.66342272     1.22922812     0.00074202     0.00630589     0.00271946
Ti      3.78590439     2.85294000     1.30262200     0.00654655     0.00093151     0.01063614
Ti      0.01823030     6.65932815     1.19765751     0.00632672    -0.00577701     0.00794086
Ti      0.00879619     2.84907161     1.07263629    -0.00513604    -0.01009775     0.00871450
Ti      5.64907864     2.87461708     3.62919979    -0.02251130    -0.00016352     0.01416498
Ti      5.72082010    -0.97614709     3.59128538     0.00493961    -0.00414128    -0.00581250
Ti      1.96541185     2.83649149     3.70854469     0.01587503    -0.01080815     0.01299436
Ti      1.88128513    -0.93211293     3.66128221     0.00440070     0.00499128    -0.00355044
O       3.75557651     4.73377935     0.86590036    -0.01910305    -0.00429272    -0.00308661
O       3.82240817     0.96891623     0.81978951    -0.00855483     0.00714458    -0.01130797
O       0.05944165     4.76674819     0.76066976     0.01034844     0.01214178     0.00185891
O      -0.02585515     0.93455499     0.72419290    -0.00648432    -0.00226514    -0.00109555
O       5.84059425     4.73294748     3.99425304    -0.00392402    -0.00411300     0.00966529
O       5.83398679     0.97215948     3.97551728    -0.00260839     0.01017746     0.00078496
O       1.78621117     4.73170438     4.08037821     0.01256704     0.00645733     0.00591714
O       1.77027041     0.96921530     4.08198376     0.00404795     0.01577090     0.01477459
O       3.80205762     2.84408516     3.26761594    -0.00216538    -0.00378338    -0.01009673
O       3.79946924    -0.94577980     3.24687000     0.00497226     0.00121896    -0.00902072
O       0.00658704    -0.94877689     3.18290281    -0.00086106    -0.01054693     0.00099810
O       5.70531173     6.62889153     1.59566979    -0.00352164    -0.01081998    -0.01081252
O       5.79368529     2.87548478     1.64230161    -0.00594928     0.00710962    -0.02868427
O       1.90247305     6.69370297     1.65467143     0.00755905     0.00309021     0.00032756
O       1.78648416     2.81862857     1.74132595     0.00249320    -0.00853092    -0.00802956
