# total energy = -19517.08575152 eV

CRYSTAL
PRIMVEC
        5.93400000     0.00000000     0.00000000
        0.00000000     9.29699974     0.00000000
        0.00000000     0.00000000     4.64899994
PRIMCOORD
23 1
Ti      4.55527900     7.03005701     2.27277602     0.05399473    -0.53144851     0.03478781
Ti      4.44802599     2.31161699     2.30252901    -0.60196001    -0.27099412    -0.01123855
Ti      1.63769400     7.06521602     2.35079701    -0.78829461     0.02703259    -1.66731885
Ti      1.38632401     2.33974700     2.38934101     0.69785551    -0.25201088    -0.19724379
Ti      2.95501001     4.57595898     0.15943999     0.36909562     0.87885635     1.64105837
Ti      3.01389802     0.09630502     4.56417500    -0.25031318    -0.55024662    -0.21190834
Ti      5.87888101     4.55251299     4.51835301     0.11203021     1.05568764     1.41016473
Ti      0.03000202     0.00346500     0.02079503    -0.50334942    -0.36866445    -0.04871522
O       4.61109201     5.50288099     1.03431498    -1.14515100    -0.38261577    -0.78250062
O       4.34967099     0.95805001     0.86834701     0.26671323    -0.06823350     0.31308129
O       1.56614098     5.55869199     1.04419398     0.01272954     0.66532641     0.03939394
O       1.42819600     0.90261801     0.77183100     0.33518893     0.76920802     1.48605318
O       4.37498397     8.53717202     3.53684399     0.12366882    -0.96380795     1.20406708
O       4.37751000     3.65007898     3.84668003     0.09338584    -0.20866335    -0.94197490
O       1.40796799     8.45104101     3.70556602     0.32066168    -1.39481781    -0.40407447
O       1.60754100     3.82264702     3.81685798    -1.11656804    -1.04425959    -1.64189115
O       2.84915498     1.41091699     3.15936101     0.37137619    -0.06720660     0.14177351
O       5.72446301     5.86299802     3.30338501     0.79601769     1.54539658    -0.51096709
O       5.77742000     1.33145298     3.26811699     0.85508675     1.40588564    -0.84271434
O       3.04885700     7.89175897     1.34644701    -1.13895953    -0.93169280     0.75957769
O       2.86465601     3.29817701     1.45190198     0.32823589    -0.99413875     0.88525609
O       5.93078800     7.85218900     1.50397800     1.21475928     0.83242324    -1.12306316
O       0.00169199     3.02965199     1.33124401    -0.40620385     0.84898398     0.46839655
