# total energy = -19959.97118125 eV

CRYSTAL
PRIMVEC
        7.60600008     0.00000000     0.00000000
        0.00000000     7.60600008     0.00000000
       -1.89786986    -1.89786986     4.85670466
PRIMCOORD
24 1
Ti      3.64016998     6.76764700     1.30797799     0.42415427    -1.84387863     1.00802399
Ti      3.79268199     2.99987900     1.26280001     0.25936450     0.75679087    -1.46583402
Ti      0.08722101     6.56706702     1.20256599    -2.32203792    -1.15060971    -1.68153243
Ti      0.08743998     2.67987499     1.03849998    -0.75487591     1.69900231     1.25712079
Ti      5.77083222     2.77696721     3.54662584     0.42977342    -0.10254489     1.21838402
Ti      5.71809420    -1.11466377     3.52420782    -0.49778787     0.29645010    -0.22153636
Ti      1.95971222     3.01735222     3.62925480    -0.63613410    -1.51437750     1.07770066
Ti      1.76844221    -0.93879579     3.76873481     0.97379463     1.24091023    -0.32176905
O       3.57229601     4.83735699     0.94663698     0.88128887    -0.03327189    -1.04818284
O       3.75132101     0.94361702     0.95790697    -0.34883018     1.22770607    -0.80849860
O       0.24438099     4.58597001     0.75316300    -0.95669704     0.54534918    -0.64792981
O       0.24277398     0.79420499     0.76553803    -0.48333055     1.92150129    -0.28639143
O       5.78063824     4.71229923     3.98996482    -0.31999396    -0.39092198     0.44398726
O       5.61788422     0.83317624     3.92364383    -0.13044728     0.02342250     0.94111692
O       1.71760225     4.82814121     4.18600679     0.11614757    -0.17548865    -0.40372737
O       2.01744625     1.06124222     4.12719683    -0.40582822    -0.40203404    -0.15827923
O       3.86764624     3.03311620     3.11280082    -1.41000661    -0.00879189     2.85016841
O       3.62743723    -1.07359279     3.22362282     1.05369143     0.34066872     0.29625753
O      -0.05316977     2.93852222     3.14679882     1.24625684    -0.74925933    -0.05994581
O      -0.01588378    -0.78534979     3.13056880     0.21770618    -0.20118633     1.80969117
O       5.80100702     6.48234501     1.65516801    -1.95546995     0.16030474    -0.44255772
O       5.64463800     2.85229200     1.68269698     1.80912450    -0.46309802    -2.23814022
O       1.74954900     6.60396999     1.70000700     3.56370200     0.14117161     0.54383043
O       1.91298100     3.03846999     1.80421899    -0.75356491    -1.31781453    -1.66195579
