# total energy = -19069.20236073 eV

CRYSTAL
PRIMVEC
        5.93400000     0.00000000     0.00000000
        0.00000000     9.29699974     0.00000000
        0.00000000     0.00000000     4.64899994
PRIMCOORD
22 1
Ti      4.08120598     7.42977199     2.17802699    -1.98720997    -0.63762122     0.18273840
Ti      4.34894099     2.17234500     2.43164101     3.23063269    -1.98923574    -0.46353099
Ti      1.21650399     6.75178502     2.54867702     2.32578067     0.41992764     1.36843520
Ti      1.76090800     2.90192501     1.74142200    -5.55441124    -2.42557319     2.19027372
Ti      3.11370900     4.45959899     4.29718301     0.88977557     3.39158458     1.90830870
Ti      2.93131499     0.20417399     0.01115400     0.71205366    -2.01593126     1.02206685
Ti      5.91373701     4.55900499     0.06924898    -0.94354379     1.27205248     1.38288840
Ti      0.20008599     8.83256500     0.19524799    -1.00408661    -0.74963420     0.66783247
O       4.13150201     5.55881799     0.81752599     0.92991771    -0.37148881    -0.83068852
O       4.73623899     0.66921099     1.01253802    -1.49898892     0.92041774     0.44337096
O       1.40205502     0.92273399     1.16413402     0.39058337     0.87094044    -2.21976377
O       4.41409001     8.42620101     3.81366900     0.90593136     0.75534668     0.19630303
O       4.59199099     3.49875800     3.82060201     0.60969697    -0.80047290    -1.42084844
O       1.76048503     8.05421798     3.82419602    -0.47108464     3.66855162     1.28099220
O       1.42701298     3.79450198     3.74279200     0.48978788    -0.53079647    -1.92501470
O       3.24705600     6.17910300     3.11342901    -2.03348753    -2.53471476     0.45140566
O       2.94108900     1.19230202     3.17253102    -0.31526853     2.08372048    -0.35360112
O       0.14962503     6.50356898     3.98019901     0.03702673    -2.88916409    -0.04436054
O       2.53130599     8.10097899     1.46508601     1.36982925    -1.40548352     0.38821358
O       3.44884102     3.22381401     1.39358802    -0.08484901     1.80009504    -2.76916604
O       5.85397703     7.82352601     1.83086502     1.17586670     0.25158125    -2.29800426
O       5.84838500     3.08903500     1.29859700     0.82604716     0.91589799     0.84214870
