# total energy = -4988.38594938 eV

CRYSTAL
PRIMVEC
        3.17541446     0.00000000     0.00000000
        0.98522732     4.87687572     0.00000000
       -0.00000656    -0.00006515     5.00071349
PRIMCOORD
6 1
Ti      2.08031755     2.43840529     2.50035686     0.00000000     0.00000000     0.00000000
Ti      0.00000000     0.00000000     0.00000000     0.00000000     0.00000000     0.00000000
O       1.77971219     0.95041860     0.97456547     0.23867200    -0.25902717    -0.41327748
O       2.38092291     3.92639198     4.02614825    -0.23867200     0.25902717     0.41327748
O       0.30060267     1.48796030     3.47492323    -0.23918879     0.26067679    -0.41528577
O       0.68461808     3.38885016     1.52579049     0.23918879    -0.26067679     0.41528577
