# total energy = -4983.88917556 eV

CRYSTAL
PRIMVEC
        4.92888031     0.00000000     0.00000000
       -0.00000800     3.28591983     0.00000000
       -2.46446920    -1.64301005     5.46037108
PRIMCOORD
6 1
Ti     -0.00021183     2.46455924     1.36509248    -0.00501082    -0.00856126     7.69407354
Ti      2.46461500    -0.82164981     4.09527785     0.00501082     0.00856126    -7.69407354
O       0.00005187     0.82147103     0.88944970     0.00192730     0.00158869    -2.82055495
O       2.46435118     0.82143834     4.57092070    -0.00192730    -0.00158869     2.82055495
O      -0.00002112    -0.82147406     3.61963512    -0.00229522    -0.00002803    -2.25813955
O       2.46442412     2.46438338     1.84073533     0.00229522     0.00002803     2.25813955
