# total energy = -19922.87209104 eV

CRYSTAL
PRIMVEC
        5.62086732     0.00000000     0.00000000
        0.00002212     3.98820167     0.00000000
        0.00000000     0.00000000     8.73274008
PRIMCOORD
24 1
Ti      2.03730725     2.36340460     3.23978428    -0.92998867     3.25811213    -5.79238750
Ti      3.58358228     1.62479707     5.49295589     0.92998867    -3.25811213     5.79238750
Ti      4.84764401     1.62479846     1.12655089    -0.92632793    -3.25800158     5.79035658
Ti      0.77324552     2.36340340     7.60618933     0.92632793     3.25800158    -5.79035658
Ti      2.03729619     0.36930386     1.12658590    -0.92996913     3.25792264     5.78751474
Ti      3.58359334     3.61889795     7.60615433     0.92996913    -3.25792264    -5.78751474
Ti      0.77323446     0.36930238     5.49292084     0.92590730     3.25820212     5.79558723
Ti      4.84765507     3.61889943     3.23981929    -0.92590730    -3.25820212    -5.79558723
O       1.77904783     1.40431362     4.45625043     2.10271117    -3.72338093     4.87309719
O       3.84184170     2.58388809     4.27648974    -2.10271117     3.72338093    -4.87309719
O       1.03143439     1.40432969     0.08990846    -2.10167218    -3.72402217     4.87317998
O       4.58945524     2.58387202     8.64283143     2.10167218     3.72402217    -4.87317998
O       3.84183069     0.58978721     0.08988011    -2.10303101     3.72294719     4.87241945
O       1.77905884     3.39841446     8.64285979     2.10303101    -3.72294719    -4.87241945
O       4.58944418     0.58977119     4.45627874     2.10145441     3.72420266     4.87360010
O       1.03144530     3.39843058     4.27646139    -2.10145441    -3.72420266    -4.87360010
O       0.20423268     2.42585033     2.35893097     3.68195453    -1.06236017     2.13622962
O       5.41665686     1.56235138     6.37380920    -3.68195453     1.06236017    -2.13622962
O       3.01467262     1.56231419     2.00746689     3.68157607     1.06264582    -2.13694387
O       2.60621691     2.42588752     6.72527314    -3.68157607    -1.06264582     2.13694387
O       0.20422162     0.43174945     2.00743897     3.68186017    -1.06274429    -2.13678318
O       5.41666792     3.55645221     6.72530102    -3.68186017     1.06274429     2.13678318
O       2.60620590     0.43178664     6.37383703    -3.68197459    -1.06262293    -2.13664100
O       3.01468363     3.55641507     2.35890310     3.68197459     1.06262293     2.13664100
