# total energy = -4987.66181454 eV

CRYSTAL
PRIMVEC
        3.52230654     0.00000000     0.00000000
        0.35134410     3.50473974     0.00000000
       -1.93685656    -1.75239814     4.50089060
PRIMCOORD
6 1
Ti      0.26337311     2.62868813     1.12522243     0.00144547    -0.00136423    -0.00002957
Ti      1.67342066    -0.87634680     3.37566763    -0.00144547     0.00136423     0.00002957
O       0.08787316     0.87617939     0.73315822     0.00044223     0.00245001     1.50640270
O       1.84892051     0.87616184     3.76773194    -0.00044223    -0.00245001    -1.50640270
O      -0.08785366    -0.87616175     2.98360343     0.00243946     0.00045354     1.50734501
O       2.02464728     2.62850294     1.51728673    -0.00243946    -0.00045354    -1.50734501
