# total energy = -19905.67863368 eV

CRYSTAL
PRIMVEC
        6.65084197     0.00000000     0.00000000
        0.00003645     7.07850710     0.00000000
        0.00000000     0.00000000    11.90354469
PRIMCOORD
24 1
Ti      2.41063193     4.19471676     4.41613027     0.06355127    -0.92482384     0.62303715
Ti      4.24024649     2.88379041     7.48741477    -0.06355127     0.92482384    -0.62303715
Ti      5.73593648     2.88379284     1.53559468     0.06390248     0.92484363    -0.62313948
Ti      0.91494194     4.19471460    10.36795048    -0.06390248    -0.92484363     0.62313948
Ti      2.41061384     0.65546335     1.53564242     0.06355127    -0.92482384    -0.62303715
Ti      4.24026458     6.42304403    10.36790275    -0.06355127     0.92482384     0.62303715
Ti      0.91492385     0.65546071     7.48736703    -0.06390248    -0.92484363    -0.62313948
Ti      5.73595457     6.42304666     4.41617800     0.06390248     0.92484363     0.62313948
O       2.10504631     2.49246275     6.07428787     1.40256455     1.30322223    -0.00925469
O       4.54583211     4.58604449     5.82925716    -1.40256455    -1.30322223     0.00925469
O       1.22043923     2.49249126     0.12255367    -1.40265557     1.30403624    -0.01012295
O       5.43043926     4.58601598    11.78099102     1.40265557    -1.30403624     0.01012295
O       4.54581402     1.04679087     0.12251504    -1.40256455    -1.30322223    -0.00925469
O       2.10506440     6.03171630    11.78102965     1.40256455     1.30322223     0.00925469
O       5.43042117     1.04676236     6.07432649     1.40265557    -1.30403624    -0.01012295
O       1.22045719     6.03174487     5.82921854    -1.40265557     1.30403624     0.01012295
O       0.24166262     4.30554929     3.21544446     0.49389187    -0.28423556     0.32701128
O       6.40921580     2.77295787     8.68810057    -0.49389187     0.28423556    -0.32701128
O       3.56708893     2.77289190     2.73636589     0.49375432     0.28451710    -0.32721799
O       3.08378949     4.30561526     9.16717893    -0.49375432    -0.28451710     0.32721799
O       0.24164453     0.76629567     2.73632788     0.49389187    -0.28423556    -0.32701128
O       6.40923389     6.31221149     9.16721694    -0.49389187     0.28423556     0.32701128
O       3.08377140     0.76636165     8.68813851    -0.49375432    -0.28451710    -0.32721799
O       3.56710702     6.31214552     3.21540645     0.49375432     0.28451710     0.32721799
