# total energy = -19075.76065754 eV

CRYSTAL
PRIMVEC
        7.60600008     0.00000000     0.00000000
        0.00000000     7.60600008     0.00000000
       -1.89786986    -1.89786986     4.85670466
PRIMCOORD
22 1
Ti      3.85112998     6.62478301     1.23405198    -0.13774639    -0.24745592    -1.55514929
Ti      3.83365099     2.77871699     1.18158501     0.46965433     0.59919427     0.58667402
Ti      0.26344200     6.67381800     1.02238997    -1.18997126     0.53855684     0.45340727
Ti      0.02315299     2.84812599     1.19340001    -0.82413760    -0.30026999    -0.99996075
Ti      5.67875723     2.91750822     3.57671983    -0.09708695    -0.42989529    -0.00298814
Ti      6.00870623    -0.86774480     3.57603984    -0.70474735    -0.08751293     1.71416874
Ti      1.90079622     2.77485421     3.66036582    -0.31029833     0.33282840    -0.06951160
Ti      1.33078823    -0.99278875     3.95024081     1.23521087    -0.41626793    -1.81962052
O       3.91646898     4.64285800     0.73766700    -0.31814148     1.46233269    -0.02860148
O       4.15086302     0.88043998     0.86752599    -1.74881822     0.14117958     0.38287931
O       0.07546502     4.78311002     0.70771901    -0.07454274     0.05785884     0.09258469
O       7.28964702     0.88903101     0.64987501     1.45105480     1.13991546     0.89672835
O       5.54697125     4.81900020     3.98604483     0.74365278    -0.35267912    -1.09218060
O       5.46413823     0.96923825     3.99880780     1.08538800    -0.31460698    -0.05295909
O       1.93662723     4.79820322     4.09527480    -0.62785077    -0.56720434     0.56681327
O       1.85024524     0.82593022     4.05115279    -0.36874492     0.54746031    -0.30772362
O       3.72831525     2.91451922     3.11237483     0.47293043    -0.34931175     0.57313382
O      -0.02421975     2.87298325     3.27324879     0.36115374    -0.12782604    -0.48465621
O       5.64712402     6.59211801     1.79486102     0.13747257    -0.36171681    -0.26716446
O       5.74846601     2.90375200     1.54577199    -0.59425775     0.15254104     1.00459414
O       1.90207799     6.72626503     1.94254798     0.76527628    -0.38222497     0.30464293
O       1.85937502     2.97081399     1.57291799     0.27454970    -1.03489486     0.10488948
