# total energy = -19954.33331699 eV

CRYSTAL
PRIMVEC
        6.01163648     0.00000000     0.00000000
        0.00002540     4.72910377     0.00000000
        0.00000000     0.00000000     9.57145137
PRIMCOORD
24 1
Ti      2.17894415     2.80246255     3.55094019     0.05165425     0.73903431    -1.26399875
Ti      3.83271778     1.92664138     6.02051123    -0.05165425    -0.73903431     1.26399875
Ti      5.18465856     1.92664302     1.23474728     0.05268552    -0.73908342     1.26802407
Ti      0.82700337     2.80246112     8.33670425    -0.05268552     0.73908342    -1.26802407
Ti      2.17893156     0.43791077     1.23478565     0.05073508     0.73968274     1.26752862
Ti      3.83273037     4.29119332     8.33666588    -0.05073508    -0.73968274    -1.26752862
Ti      0.82699078     0.43790897     6.02047286    -0.05348205     0.73964083     1.26472663
Ti      5.18467116     4.29119512     3.55097857     0.05348205    -0.73964083    -1.26472663
O       1.90272988     1.66519786     4.88423837     0.90851301    -0.39427727     0.75044307
O       4.10893211     3.06390607     4.68721305    -0.90851301     0.39427727    -0.75044307
O       1.10314145     1.66521694     0.09854347    -0.90794068    -0.39461923     0.74960772
O       4.90852059     3.06388705     9.47290768     0.90794068     0.39461923    -0.74960772
O       4.10891951     0.69935413     0.09851242    -0.90802630     0.39443205     0.75020190
O       1.90274247     4.02974980     9.47293874     0.90802630    -0.39443205    -0.75020190
O       4.90850799     0.69933511     4.88426943     0.90803813     0.39483495     0.75033251
O       1.10315394     4.02976888     4.68718200    -0.90803813    -0.39483495    -0.75033251
O       0.21843212     2.87650899     2.58548780     0.06544360    -0.17748743     0.54302619
O       5.79322987     1.85259495     6.98596362    -0.06544360     0.17748743    -0.54302619
O       3.22425684     1.85255084     2.20026835     0.06519060     0.17724832    -0.54389291
O       2.78740515     2.87655315     7.37118292    -0.06519060    -0.17724832     0.54389291
O       0.21841953     0.51195710     2.20023778     0.06481291    -0.17730643    -0.54360700
O       5.79324246     4.21714688     7.37121349    -0.06481291     0.17730643     0.54360700
O       2.78739256     0.51200121     6.98599414    -0.06580047    -0.17757253    -0.54320951
O       3.22426943     4.21710272     2.58545723     0.06580047     0.17757253     0.54320951
