# total energy = -19960.42086209 eV

CRYSTAL
PRIMVEC
        7.60600008     0.00000000     0.00000000
        0.00000000     7.60600008     0.00000000
       -1.89786986    -1.89786986     4.85670466
PRIMCOORD
24 1
Ti      3.81540099     6.63432498     1.16384900    -0.58825037     0.45138124     0.28171562
Ti      3.70643699     2.86236197     1.22437201     0.00640282    -0.55551687    -0.17409357
Ti      0.10111302     6.77541300     1.14545099     0.20947274    -1.35383775     1.81875791
Ti     -0.06633798     2.89819500     1.18716101     0.16806202     1.05704132     1.24776403
Ti      5.63405720     2.98261322     3.65576383     1.82306528    -1.52209955     0.18248823
Ti      5.67664121    -0.96611779     3.54294382     2.22334686     0.86795744     0.95674229
Ti      1.91763220     2.74667520     3.72425079    -1.64923911    -0.37556169    -2.57504819
Ti      1.95145922    -1.09889376     3.68283082    -1.60337755     0.65813709    -0.27247636
O       3.72576699     4.75999302     0.68056899     0.45735623    -0.64991778     1.85166445
O       3.77694600     0.97322999     0.84105998     0.18452943    -1.58298304     0.27585479
O      -0.02751600     4.82801902     0.87409498    -0.34631333     0.95472346    -0.61349655
O       0.10432798     1.03501403     0.77308298    -0.56992765    -1.17930504    -0.59589195
O       6.04184823     4.79363822     3.98750579    -0.96559898     0.90277096     0.92127546
O       5.84671724     1.12138925     4.16044583    -0.92926053    -1.72761741    -1.36200024
O       1.60220324     4.67623723     4.06763783     1.02018172     0.96598207     0.66747457
O       1.86165620     0.84626322     4.03899881     0.53090009     0.63875585     0.31097119
O       3.78303921     2.90030123     3.33056980    -0.80503661     0.15617478    -0.31476845
O       3.86870221     6.31213525     3.10471579    -0.30305141     0.39395897     1.43289432
O      -0.04640276     2.79505724     3.14543079     0.83314572    -0.08535834     0.34241707
O       0.04415624    -0.97416780     3.14133882    -0.55040114     0.70167488     0.30051913
O       5.73008700     6.75649502     1.66631000    -0.34253123     0.17474355    -1.49614760
O       5.61564702     2.97892099     1.70166697    -0.09800200    -0.22092881    -0.84611591
O       1.91089302     6.41382602     1.82883499     0.88846842     1.04919303    -2.58636722
O       1.90433398     2.83833701     1.62618598     0.40605859     0.28063164     0.24586749
