# total energy = -19517.42663032 eV

CRYSTAL
PRIMVEC
        7.60600008     0.00000000     0.00000000
        0.00000000     7.60600008     0.00000000
       -1.89786986    -1.89786986     4.85670466
PRIMCOORD
23 1
Ti      3.81571199     6.62085001     1.12696101     1.87652162    -0.80447379    -0.12820168
Ti      3.85309699     2.75432202     1.19457901    -1.09942597     0.90208782     1.14674406
Ti      0.18284302     6.76569101     1.21647197    -1.28084951    -0.65642422    -0.86783557
Ti     -0.00632197     2.86716002     1.14502902     0.03683132     0.41405446     2.64822207
Ti      5.54418423     2.84691323     3.72929983    -0.94924264     0.42522257     0.96513515
Ti      5.75950624    -0.99421975     3.48721579    -1.30373876    -0.00208311     0.57734863
Ti      1.84419923     2.83327823     3.65459281     1.51825035     0.73369978     0.61998988
Ti      1.95885924    -0.86924677     3.61926182     0.60315043    -1.63441026     0.34546563
O       3.90016000     4.65529102     0.82261302    -0.58756028    -0.24778013     0.01406008
O       3.71510899     0.85121801     0.75027401     0.49186764     1.76066510    -0.55897578
O      -0.13240899     4.78017499     1.02100300     0.89546568     0.31466586    -0.44803777
O       0.05357099     1.04899902     0.70928902     0.13434096    -2.86098736     0.43798296
O       5.47398722     4.73102321     4.06356782     1.65320375     1.51486755     0.10537387
O       5.59500821     1.00588224     4.25067680     0.30888833     0.06641188    -3.57041618
O       1.75919024     4.74246720     4.06686983    -0.14591967    -0.31620055    -1.44105886
O       1.92250021     0.91429822     4.15037183    -0.25476608     0.35494195    -0.71468081
O       3.74458522     2.93757722     3.47333680    -0.85283806    -0.43445437    -1.05762548
O       3.83766221    -0.76832578     3.12901883    -0.71549894    -0.25083075     1.01608955
O       0.05454823    -0.66200079     3.16027083    -0.07541460    -0.45727472    -0.46554931
O       5.64714497     6.61059598     1.56645600     2.05904970     0.35671216     0.75825768
O       5.58702298     2.63027002     1.86297401     2.04800193    -0.02521250    -0.98442434
O       2.05523501     6.50312299     1.46210002    -3.81107744     0.19476139     1.31934665
O       1.88721700     2.64879403     1.72365000    -0.54923952     0.65204100     0.28278983
