# total energy = -4977.26150303 eV

CRYSTAL
PRIMVEC
        4.58372585     0.00000000     0.00000000
        0.00000000     2.39400387     0.00000000
        0.00000000    -0.00012627     6.38400941
PRIMCOORD
6 1
Ti      2.29186271     1.19693875     3.19200470     0.00000000     0.00000000     0.00000000
Ti      0.00000000     0.00000000     0.00000000     0.00000000     0.00000000     0.00000000
O       2.29186271     0.46653148     1.24414942    -0.00000000    -0.17857269     1.85981639
O       2.29186271     1.92734607     5.13986004    -0.00000000     0.17857269    -1.85981639
O       0.00000000     0.73035767     4.43615542    -0.00000000     0.17837215     1.85592194
O       0.00000000     1.66351987     1.94785398    -0.00000000    -0.17837215    -1.85592194
