# total energy = -4989.57754131 eV

CRYSTAL
PRIMVEC
        3.95588976     0.00000000     0.00000000
        0.78333628     3.87755697     0.00000000
       -2.36964906    -1.93880797     5.07428377
PRIMCOORD
6 1
Ti      0.58736585     2.90831601     1.26857108    -0.00036330     0.00036330     0.00000000
Ti      1.78221114    -0.96956701     3.80571286     0.00036330    -0.00036330     0.00000000
O       0.19587552     0.96938358     0.82655942    -0.00043914    -0.00080218    -0.79818667
O       2.17370135     0.96936533     4.24772457     0.00043914     0.00080218     0.79818667
O      -0.19584956    -0.96936233     3.36370120    -0.00080218    -0.00043914    -0.79818667
O       2.56542630     2.90811114     1.71058274     0.00080218     0.00043914     0.79818667
