# total energy = -19892.93026250 eV

CRYSTAL
PRIMVEC
        8.85571235     0.00000000     0.00000000
        0.00002788     3.57505923     0.00000000
        0.00000000     0.00000000    13.70643476
PRIMCOORD
24 1
Ti      3.20978644     2.11857674     5.08498956     0.14670849    -0.09996864     2.42526106
Ti      5.64595404     1.45648236     8.62144532    -0.14670849     0.09996864    -2.42526106
Ti      7.63749147     1.45648358     1.76817312     0.15059265     0.09887952    -2.42636458
Ti      1.21824901     2.11857571    11.93826188    -0.15059265    -0.09887952     2.42636458
Ti      3.20977262     0.33104719     1.76822807     0.14670849    -0.09996864    -2.42526106
Ti      5.64596786     3.24401204    11.93820693    -0.14670849     0.09996864     2.42526106
Ti      1.21823519     0.33104591     8.62139037    -0.15059265    -0.09887952    -2.42636458
Ti      7.63750528     3.24401332     5.08504451     0.15059265     0.09887952     2.42636458
O       2.80289881     1.25883910     6.99428872     1.59583753     0.68407902    -2.09465770
O       6.05284173     2.31622000     6.71214616    -1.59583753    -0.68407902     2.09465770
O       1.62502898     1.25885350     0.14111543    -1.59602522     0.68441403    -2.09598490
O       7.23071163     2.31620560    13.56531907     1.59602522    -0.68441403     2.09598490
O       6.05282792     0.52869039     0.14107097    -1.59583753    -0.68407902    -2.09465770
O       2.80291256     3.04636872    13.56536353     1.59583753     0.68407902     2.09465770
O       7.23069781     0.52867598     6.99433325     1.59602522    -0.68441403    -2.09598490
O       1.62504260     3.04638318     6.71210163    -1.59602522     0.68441403     2.09598490
O       0.32176549     2.17455367     3.70244996    -1.69504204     0.50847081     0.24135520
O       8.53397499     1.40050543    10.00398492     1.69504204    -0.50847081    -0.24135520
O       4.74963333     1.40047220     3.15081101    -1.69358011    -0.50848418    -0.24160383
O       4.10610721     2.17458696    10.55562362     1.69358011     0.50848418     0.24160383
O       0.32175168     0.38702406     3.15076723    -1.69504204     0.50847081    -0.24135520
O       8.53398880     3.18803505    10.55566740     1.69504204    -0.50847081     0.24135520
O       4.10609340     0.38705729    10.00402857     1.69358011     0.50848418    -0.24160383
O       4.74964715     3.18800181     3.70240625    -1.69358011    -0.50848418     0.24160383
