# total energy = -4951.05571863 eV

CRYSTAL
PRIMVEC
        5.15992144     0.00000000     0.00000000
       -0.00000713     2.48440646     0.00000000
       -2.57998963    -1.24227264     5.55889622
PRIMCOORD
6 1
Ti     -0.00022044     1.86338722     1.38972376    -0.02150471    -0.02148363    39.28580805
Ti      2.58014507    -0.62125356     4.16917177     0.02150471     0.02148363   -39.28580805
O       0.00005491     0.62108970     0.90549864     0.01986435     0.02053849   -31.46658215
O       2.57986956     0.62104385     4.65339695    -0.01986435    -0.02053849    31.46658215
O      -0.00002108    -0.62111795     3.68494664    -0.00144239     0.00019875    -1.38922926
O       2.57994549     1.86325150     1.87394894     0.00144239    -0.00019875     1.38922926
