# total energy = -19072.87947560 eV

CRYSTAL
PRIMVEC
        5.17600016     0.00000000     0.00000000
        0.00000000     5.50899976     0.00000000
        0.00000000     0.00000000     9.26300011
PRIMCOORD
22 1
Ti      1.72452098     3.49772102     3.21867199     1.81548541     0.85189061    -0.02930262
Ti      3.74491099     2.40193300     6.08544000    -1.42893328     0.14407413    -1.04284060
Ti      4.47834102     2.10331499     1.47491802    -2.17453059     0.63491308    -0.28365706
Ti      1.18864402     2.66301000     7.79167298     0.22904732     1.64378014    -0.66247300
Ti      1.74391098     0.67453499     1.10777399     0.32067993     0.87451607    -0.72097719
Ti      3.23044899     5.38914699     7.97798698     0.82664725     0.73162465    -2.18140264
Ti      0.79838797     5.29873700     6.47662502     0.88258779    -1.60678581    -0.03407536
Ti      4.24205899     5.17509902     3.60917803     0.03005981     0.11673404     1.51325624
O       3.17296298     3.84111001     4.31934702     1.02198200    -1.40213389     1.53805068
O       0.72523901     2.33461001     0.24425298     0.37819913    -0.12120005     0.26638516
O       4.99337299     3.54861200     6.91884400     0.01128303     1.54421773    -0.37527501
O       3.54561601     0.61027102     0.34276499     0.68932278     0.39089987    -0.44370778
O       1.50828201     4.90209600     8.35661902    -2.33649549     1.07969044     3.72668403
O       3.75977901     0.94309901     4.88292698     0.64282462     0.09150277    -1.48963833
O       0.81725399     4.81518102     4.67062102    -0.96319114     0.10602488    -0.73355889
O       5.14634501     3.16821600     2.82423301    -0.60984918     1.22742171    -0.15625551
O       4.84509398     1.13883998     7.21197301     0.17024720    -0.01181937     0.25223637
O       2.68715599     1.98157099     2.25182600    -1.00944890     1.11193620     0.09771301
O       2.52778902     3.92087200     6.80596499     1.01646467    -1.91281739    -1.50520277
O       0.11719800     0.73281799     2.16282500     0.67984261    -3.21744524     1.86299710
O       2.32286900     1.40519198     6.96370998    -0.30030547    -1.08670852    -0.04200181
O       2.44646702     4.89094000     2.23096800     0.10808073    -1.19031579     0.44304598
