# total energy = -4954.80070933 eV

CRYSTAL
PRIMVEC
        5.85684813     0.00000000     0.00000000
       -0.00000765     2.51007794     0.00000000
       -2.92845766    -1.25512977     6.35598700
PRIMCOORD
6 1
Ti     -0.00025026     1.88263640     1.58899669    -0.01874026    -0.01719657    34.85243702
Ti      2.92863279    -0.62768817     4.76699019     0.01874026     0.01719657   -34.85243702
O       0.00006223     0.62750410     1.03533834     0.01709244     0.01664816   -29.85077408
O       2.92832013     0.62744406     5.32064861    -0.01709244    -0.01664816    29.85077408
O      -0.00002449    -0.62754953     4.21333184    -0.00150255     0.00003394    -1.54944247
O       2.92840678     1.88249764     2.14265510     0.00150255    -0.00003394     1.54944247
