# total energy = -39480.96121450 eV

CRYSTAL
PRIMVEC
        5.93188753     0.00000000     0.00000000
        0.00000000     9.29428401    -0.00002646
        0.00000000    -0.00002646     9.29428401
PRIMCOORD
47 1
Ti      4.44891576     6.97374216     6.94961798     0.00000000     0.01984584    -0.02545830
Ti      4.44891576     7.01866416     2.37150892     0.00000000     0.31046391     0.31046391
Ti      4.44891576     2.32625580     6.97341103     0.00000000     0.25802830     0.25802830
Ti      4.44891576     2.30248921     2.32661338     0.00000000    -0.02545830     0.01984584
Ti      1.48297199     6.94562518     6.97764255     0.00000000     0.00414205     0.04888517
Ti      1.48297199     6.98720146     2.34004622     0.00000000     0.01248914     0.01248914
Ti      1.48297199     2.15449857     6.80165380     0.00000000     0.36673895     0.36673895
Ti      1.48297199     2.33051378     2.29849641     0.00000000     0.04888517     0.00414205
Ti      2.96473055     4.65999940     4.63324343    -0.03754172    -0.17864648     0.15386464
Ti      3.07093337     4.72014407     0.07298884     0.31142961     0.17403701     0.17403701
Ti      2.98524903    -0.01718280     4.62997243     0.24578470    -0.05544895    -0.05544895
Ti      2.96473055    -0.01388534     0.01287062    -0.03754172     0.15386464    -0.17864648
Ti      0.00121321     4.65999940     4.63324343     0.03754172    -0.17864648     0.15386464
Ti     -0.10498960     4.72014407     0.07298884    -0.31142961     0.17403701     0.17403701
Ti     -0.01930527    -0.01718280     4.62997243    -0.24578470    -0.05544895    -0.05544895
Ti      0.00121321    -0.01388534     0.01287062     0.03754172     0.15386464    -0.17864648
O       4.44891576     5.55364065     5.55493233     0.00000000     0.07378375    -0.02910310
O       4.44891576     5.57503444     0.92787921     0.00000000     0.28265305     0.28265305
O       4.44891576     0.92991603     5.57707127     0.00000000    -0.07191352    -0.07191352
O       4.44891576     0.90780356     0.90651187     0.00000000    -0.02910310     0.07378375
O       1.48297199     5.55786253     5.55710355     0.00000000     0.06909894    -0.09981695
O       1.48297199     5.47865249     0.83149726     0.00000000    -0.21114267    -0.21114267
O       1.48297199     0.91295007     5.56010530     0.00000000    -0.78405537    -0.78405537
O       1.48297199     0.90997478     0.91073376     0.00000000    -0.09981695     0.06909894
O       4.44891576     8.38809715     8.37861123     0.00000000    -0.05728549    -0.02153454
O       4.44891576     8.38282343     3.73566819     0.00000000    -0.08306440    -0.08306440
O       4.44891576     3.74700912     8.39416435     0.00000000     0.09304723     0.09304723
O       4.44891576     3.73148245     3.74096838     0.00000000    -0.02153454    -0.05728549
O       1.48297199     8.38342802     8.38044235     0.00000000     0.00071014     0.00670544
O       1.48297199     8.37421641     3.72706118     0.00000000    -0.02855185    -0.02855185
O       1.48297199     3.73331358     3.73629925     0.00000000     0.00670544     0.00071014
O       2.95542412     6.00508873     7.89386679    -0.13529227     0.01616427    -0.14623283
O       2.96128771     6.05651017     3.22378413     0.10198850     0.02333380    -0.10398702
O       2.93116015     1.47200909     7.91239411    -0.03531232     0.05513630     0.03930061
O       2.96643212     1.41871164     3.23208572     0.01475377    -0.03121963    -0.01363482
O       0.01051964     6.00508873     7.89386679     0.13529227     0.01616427    -0.14623283
O       0.00465606     6.05651017     3.22378413    -0.10198850     0.02333380    -0.10398702
O       0.03478361     1.47200909     7.91239411     0.03531232     0.05513630     0.03930061
O      -0.00048836     1.41871164     3.23208572    -0.01475377    -0.03121963    -0.01363482
O       2.96643212     7.87921450     6.06584042     0.01475377    -0.01363482    -0.03121963
O       2.96128771     7.87093936     1.40935494     0.10198850    -0.10398702     0.02333380
O       2.93116015     3.26523888     6.11916432    -0.03531232     0.03930061     0.05513630
O       2.95542412     3.24673801     1.35795996    -0.13529227    -0.14623283     0.01616427
O      -0.00048836     7.87921450     6.06584042    -0.01475377    -0.01363482    -0.03121963
O       0.00465606     7.87093936     1.40935494    -0.10198850    -0.10398702     0.02333380
O       0.03478361     3.26523888     6.11916432     0.03531232     0.03930061     0.05513630
O       0.01051964     3.24673801     1.35795996     0.13529227    -0.14623283     0.01616427
