# total energy = -19877.53934258 eV

CRYSTAL
PRIMVEC
        9.54926337     0.00000000     0.00000000
        0.00002969     3.38776799     0.00000000
        0.00000000     0.00000000    15.19207260
PRIMCOORD
24 1
Ti      3.46116605     2.00758806     5.63615071     0.24396924     0.06041041     1.98687753
Ti      6.08812662     1.38017961     9.55592235    -0.24396924    -0.06041041    -1.98687753
Ti      8.23563485     1.38018070     1.95982512     0.25502062    -0.06121490    -1.98917609
Ti      1.31365789     2.00758710    13.23224806    -0.25502062     0.06121490     1.98917609
Ti      3.46115160     0.31370413     1.95988605     0.24398827     0.06141494    -1.98903777
Ti      6.08814114     3.07406366    13.23218714    -0.24398827    -0.06141494     1.98903777
Ti      1.31364337     0.31370297     9.55586142    -0.25491932     0.06101127    -1.98883002
Ti      8.23564937     3.07406482     5.63621163     0.25491932    -0.06101127     1.98883002
O       3.02241245     1.19289060     7.75239854     0.68605157     0.51707886    -2.03897349
O       6.52688028     2.19487713     7.43967451    -0.68605157    -0.51707886     2.03897349
O       1.75229568     1.19290435     0.15641093    -0.68386536     0.51699864    -2.03929540
O       7.79699712     2.19486338    15.03566167     0.68386536    -0.51699864     2.03929540
O       6.52686576     0.50099307     0.15636159    -0.68473568    -0.51703053    -2.03843073
O       3.02242697     2.88677459    15.03571101     0.68473568     0.51703053     2.03843073
O       7.79698260     0.50097939     7.75244782     0.68433304    -0.51695262    -2.03865622
O       1.75231000     2.88678834     7.43962524    -0.68433304     0.51695262     2.03865622
O       0.34696465     2.06063253     4.10375789    -1.52458992     0.53108547     0.59429323
O       9.20232809     1.32713513    11.08831510     1.52458992    -0.53108547    -0.59429323
O       5.12160896     1.32710373     3.49232690    -1.52523707    -0.53106361    -0.59381989
O       4.42768377     2.06066400    11.69974590     1.52523707     0.53106361     0.59381989
O       0.34695013     0.36674853     3.49227841    -1.52453541     0.53094920    -0.59357358
O       9.20234260     3.02101919    11.69979439     1.52453541    -0.53094920     0.59357358
O       4.42766932     0.36677994    11.08836353     1.52535508     0.53108058    -0.59479408
O       5.12162342     3.02098773     4.10370940    -1.52535508    -0.53108058     0.59479408
