# total energy = -39021.79215078 eV

CRYSTAL
PRIMVEC
        7.60600008     0.00000000     0.00000000
        0.00000000     7.60600008     0.00000000
       -3.79573973    -3.79573973     9.71340985
PRIMCOORD
46 1
Ti      1.75436446     3.94190547     6.49885465     0.62365241     1.56998071    -4.48338260
Ti      3.91220900    -0.07433998     1.72604098    -0.20845638     2.06724407    -0.17539275
Ti      1.62877043     0.76696844     6.28617662     1.69956333    -0.58843060    -0.74043016
Ti      4.28913502     3.50444300     1.60351401     0.19256001    -2.59423145     2.18963171
Ti     -2.12753554     3.79763747     6.43584662    -0.17513744     2.06172391    -0.75983634
Ti      0.01379697    -0.08398202     1.15627002     0.16177027    -0.97349072     0.73194578
Ti     -2.11566255     0.81690944     6.14215960     0.23010122     0.36363408    -2.39713653
Ti      0.44841401     3.58535399     0.90226700    -1.11862724    -0.68753432     1.62240526
Ti      3.85669645     1.77159045     8.19527462    -3.29838514     0.66146076     2.61957097
Ti      5.80217798     1.65557701     3.28949099    -1.22995090     2.12583233     0.12107278
Ti      3.84936242    -1.96559757     8.36054461     1.99657830    -1.49889148     1.16206913
Ti      5.51385798     5.95367899     3.60693601     4.89576944    -0.42090054     0.64783982
Ti     -0.11045257     2.02598542     8.42358862     1.07918290    -1.57648894    -3.80832044
Ti      1.83286102     1.63949002     3.37214101     0.76186289     1.09885262     0.98637890
Ti     -0.14770856    -1.63823053     8.55246265     0.56298001    -1.69463632     0.50781826
Ti      2.07687899     5.88937099     3.30881998    -5.72245526    -0.13930011     4.24530633
O       1.37520001     4.97131900     4.82198799     2.56819234    -0.50970571     0.14619349
O       3.90638000     1.35558902     0.51199598    -0.17547143     1.90081007    -2.86622393
O       5.19656145     2.35753947     5.18623863     1.30003560    -0.43054373    -0.56937203
O      -0.06642201     5.40246998     0.75198098     1.07167065     1.21387225    -1.33472571
O       5.52863144     5.05787547     5.15833665     0.07859248     1.31679277     0.25364096
O       1.06580600     1.77762502     0.27003201    -2.31320617     1.20647929     1.65573371
O       3.83963848     3.71841344     9.04612464    -1.33212607    -0.74096701     0.04002335
O       5.35055901     3.57136699     3.18356801    -1.16825392     1.23240425    -1.49823585
O      -3.27406653    -0.01339755     8.70343364     0.18400621    -1.15439978     0.17585992
O       5.09978398     0.15767402     4.32227199     1.23233560    -2.10889673     0.10415928
O       4.12898598     6.52960000     0.12169902    -0.58126750     0.83423792     3.09038024
O       1.68973646     2.33775443     5.36010061     1.76867898     0.06211608    -1.86231396
O       0.13558945     0.07232144     9.28311360    -1.06368146     1.08555461     0.23969401
O       2.20248101    -0.16075902     4.42697903    -0.20225153     0.99580791     1.28744542
O       1.84525843     2.02575343     7.92910365    -0.06832452    -1.11541798    -0.87475930
O       3.80303100     1.70893200     2.77973899     0.05250246    -0.42928851    -0.05232531
O       1.37339446    -1.50568655     7.46361865     1.33811597     0.26021271     0.45329054
O       3.82863302     5.59889502     2.81574500     0.23028608     0.40730403    -2.01229109
O      -2.11538955     2.23196947     7.53250662     3.00655659    -1.03846227     2.65196020
O      -0.04593899     1.53062900     3.49774298     1.03993525     0.40763544    -0.62828451
O      -1.90151754    -2.55006453     7.96637265     0.33820972     1.55729282    -1.85425458
O      -0.16591898     5.99641101     3.19136100    -1.57459327     0.68959429    -0.62858842
O       3.60165746     3.71155647     6.62965763     1.24345460     1.30697398     1.03706539
O       5.85182502     0.15844599     1.75895602    -0.16998495    -0.14436595     0.85646332
O       3.70543844     0.65623244     6.57692962    -1.05057114    -0.15042630    -0.13658502
O       6.28181699     2.95083300     1.25008298     1.15442678    -0.07324741    -1.51365681
O       0.18123643     3.96838545     7.11004961    -4.44338033    -1.84954020     2.33775353
O       1.70261902     0.22719701     2.18778301     0.96291551    -2.57749562    -2.14036961
O      -0.08631357     1.23108547     6.23000260    -2.82012892    -2.47735163     1.93550044
O       2.07630103     3.42376802     2.25645201    -1.05768204     0.54819745    -0.76271752
