# total energy = -19956.67356413 eV

CRYSTAL
PRIMVEC
        5.51217642     0.00000000     0.00000000
        0.00003021     5.86662262     0.00000000
        0.00000000     0.00000000     9.86558373
PRIMCOORD
24 1
Ti      1.99791674     3.47655513     3.66006127     0.02512046    -0.47455151     0.39751044
Ti      3.51428989     2.39006754     6.20552274    -0.02512046     0.47455151    -0.39751044
Ti      4.75390844     2.39006955     1.27269131     0.02618515     0.47492690    -0.39748164
Ti      0.75829818     3.47655334     8.59289281    -0.02618515    -0.47492690     0.39748164
Ti      1.99790174     0.54324394     1.27273088     0.02512046    -0.47455151    -0.39751044
Ti      3.51430489     5.32337890     8.59285325    -0.02512046     0.47455151     0.39751044
Ti      0.75828319     0.54324175     6.20548318    -0.02618515    -0.47492690    -0.39748164
Ti      4.75392344     5.32338109     3.66010083     0.02618515     0.47492690     0.39748164
O       1.74464928     2.06573761     5.03433197     0.80609436     0.72568180     0.04610941
O       3.76755735     3.80088512     4.83125205    -0.80609436    -0.72568180    -0.04610941
O       1.01149244     2.06576124     0.10157172    -0.80638310     0.72627906     0.04585230
O       4.50071425     3.80086149     9.76401201     0.80638310    -0.72627906    -0.04585230
O       3.76754236     0.86757376     0.10153971    -0.80609436    -0.72568180     0.04610941
O       1.74466427     4.99904892     9.76404403     0.80609436     0.72568180    -0.04610941
O       4.50069926     0.86755013     5.03436398     0.80638310    -0.72627906     0.04585230
O       1.01150732     4.99907260     4.83122004    -0.80638310     0.72627906    -0.04585230
O       0.20028847     3.56841245     2.66494035     0.28120140    -0.16534179     0.19347327
O       5.31191816     2.29821022     7.20064366    -0.28120140     0.16534179    -0.19347327
O       2.95638110     2.29815555     2.26788302     0.28025318     0.16502092    -0.19359206
O       2.55582553     3.56846712     7.59770083    -0.28025318    -0.16502092     0.19359206
O       0.20027348     0.63510108     2.26785151     0.28120140    -0.16534179    -0.19347327
O       5.31193315     5.23152159     7.59773233    -0.28120140     0.16534179     0.19347327
O       2.55581054     0.63515576     7.20067511    -0.28025318    -0.16502092    -0.19359206
O       2.95639609     5.23146691     2.66490885     0.28025318     0.16502092     0.19359206
