# total energy = -19518.04951400 eV

CRYSTAL
PRIMVEC
        7.60600008     0.00000000     0.00000000
        0.00000000     7.60600008     0.00000000
       -1.89786986    -1.89786986     4.85670466
PRIMCOORD
23 1
Ti      3.73680298     6.66099202     1.29331100     2.31984734     0.10019696    -1.77834221
Ti      3.74645999     2.84158198     1.06215600    -1.20291831    -0.12129338     1.40667292
Ti      0.06989902     6.63451299     1.23208800    -2.19373082    -0.83543272     0.90887605
Ti      0.06437103     2.80285001     1.05067497     1.67006865     0.89130229    -0.10516999
Ti      5.56115224     2.87506323     3.58817181    -1.25590286    -0.53522957     2.52726190
Ti      5.64613620    -1.05446378     3.68354680     1.79936485     0.49341468    -1.70402111
Ti      1.87880223     2.98121921     3.70399982     1.28978204    -0.41730768    -0.31283447
Ti      1.98724520    -0.90111176     3.65273482    -2.35120375    -0.20154217     0.78233427
O       3.90816899     4.75793500     0.86851100    -0.81876039    -0.07980527    -0.30760021
O       4.11689597     0.96487502     0.79257200    -0.29001155     0.52996858    -0.34916262
O       0.15212698     4.62903202     0.90636098     0.28855681     2.49717459    -0.50048136
O      -0.24457900     0.99440100     0.77350400     0.27687140    -1.71016296    -0.84414825
O       5.66361922     4.72301523     4.06405683     0.68203370     0.42091700     0.49427137
O       5.88755824     1.05711220     3.94282682    -0.38016937    -1.82940768     0.43269317
O       1.74415620     4.82581923     4.01132580    -0.18536812    -0.73391961     0.19536895
O       1.58815824     1.04883021     4.01606781     0.36099870    -0.65078682     0.81750621
O       3.74430021     2.88545924     3.39404879     0.07966103     0.00079344    -0.77463999
O       3.76975522    -1.13293976     3.20023683     0.22596508     0.70855773     0.28228846
O       0.05248221    -0.99991375     3.18100881    -0.38102889     0.10977020     0.07693283
O       5.70879402     6.51212901     1.63089100     0.11628024     0.38571241     0.55647358
O       6.01072102     2.92433498     1.92384898    -0.44338202     0.08151171    -2.15639376
O       1.91017302     6.87966002     1.50460798     0.22564884    -0.08622249     0.71791860
O       1.86971102     2.51208003     1.72354501     0.16739765     0.98179050    -0.36580461
