# total energy = -19960.17629069 eV

CRYSTAL
PRIMVEC
        7.60600008     0.00000000     0.00000000
        0.00000000     7.60600008     0.00000000
       -1.89786986    -1.89786986     4.85670466
PRIMCOORD
24 1
Ti      3.79699600     6.82578601     1.09199398     2.42652193    -0.23205757    -0.28924458
Ti      3.80389800     2.84176899     1.18787000    -0.56529812     0.60492398    -0.32723702
Ti     -0.03571100     6.62908702     1.23083702    -1.57609171    -0.43201543     0.45010366
Ti     -0.12012498     2.71340101     1.33863101     0.04616057     0.44640435    -0.80755603
Ti      5.58024321     2.82486924     3.76103682     0.55552895    -0.48895201     0.02289800
Ti      5.65378620    -0.95475980     3.62792180     1.45411544     0.42042283     0.08259492
Ti      1.94215020     2.82516722     3.65836881     0.23588543    -0.32629034    -0.14535609
Ti      2.01770322    -0.93149076     3.42009881    -1.29216494     0.57106356     2.22743106
O       4.05872299     4.74700003     0.92273600    -1.21824107     1.56348687    -1.52048027
O       4.09908302     1.06626401     0.64308599    -1.42080473    -1.56017709    -0.02176620
O      -0.30488002     4.74472398     0.83809198     0.78224171    -0.13412705     0.72503182
O      -0.08394900     0.84660798     0.73741898     0.20825326     1.36340175     1.05823123
O       5.52152422     4.70675123     4.10985083     0.48978248     0.17648136    -0.67845627
O       5.85680124     0.90768821     4.26214883    -0.13511075    -0.05342729    -0.61614479
O       2.24115625     4.91631521     3.89628283    -1.30536010    -2.38033822     1.21633254
O       1.84384420     1.01742222     4.01382881    -0.30154295    -0.39144983     0.24149558
O       3.85370925     2.49762724     3.34961881    -1.32900552     0.73839848    -0.63925079
O       3.84052924    -0.90410579     3.15300782    -0.31586374     0.74340904    -0.72091985
O       0.02330322     2.85605725     3.22573783    -0.10424439     0.38288085     0.58074609
O      -0.01860376    -1.02129579     3.22044780     0.43092991    -0.30966944    -0.39295110
O       5.66504201    -0.59579400     1.69798401     0.25171546    -1.16409233    -0.19413482
O       5.56610899     2.82485500     1.72418098     2.74422118    -0.22717248     0.26200836
O       1.91147602     6.71121999     1.54546301     0.41416862     0.15296990    -1.08574847
O       1.96013598     2.70309100     1.65807700    -0.47579696     0.53592634     0.57237303
