# total energy = -19916.44358973 eV

CRYSTAL
PRIMVEC
        7.87231944     0.00000000     0.00000000
        0.00002770     4.51151542     0.00000000
        0.00000000     0.00000000    11.91016132
PRIMCOORD
24 1
Ti      2.85335368     2.67352000     4.41858507     0.39678333    -0.26841556     2.37834047
Ti      5.01899365     1.83799579     7.49157675    -0.39678333     0.26841556    -2.37834047
Ti      6.78937848     1.83799739     1.53644829     0.39629096     0.26816822    -2.37849525
Ti      1.08296884     2.67351853    10.37371365    -0.39629096    -0.26816822     2.37849525
Ti      2.85333995     0.41776235     1.53649603     0.39678333    -0.26841556    -2.37834047
Ti      5.01900737     4.09375356    10.37366591    -0.39678333     0.26841556     2.37834047
Ti      1.08295511     0.41776057     7.49152902    -0.39629096    -0.26816822    -2.37849525
Ti      6.78939221     4.09375528     4.41863280     0.39629096     0.26816822     2.37849525
O       2.49164864     1.58858135     6.07766435     1.10994230     1.18328613    -1.80601398
O       5.38069869     2.92293438     5.83249747    -1.10994230    -1.18328613     1.80601398
O       1.44457675     1.58859952     0.12262177    -1.11024929     1.18401787    -1.80795696
O       6.42777064     2.92291627    11.78753968     1.11024929    -1.18401787     1.80795696
O       5.38068496     0.66717667     0.12258313    -1.10994230    -1.18328613    -1.80601398
O       2.49166237     3.84433912    11.78757831     1.10994230     1.18328613     1.80601398
O       6.42775691     0.66715849     6.07770299     1.11024929    -1.18401787    -1.80795696
O       1.44459029     3.84435730     5.83245877    -1.11024929     1.18401787     1.80795696
O       0.28603641     2.74415946     3.21723182    -2.16148506     0.72914070     0.38612842
O       7.58631091     1.76735634     8.69293000     2.16148506    -0.72914070    -0.38612842
O       4.22220584     1.76731415     2.73788692    -2.16125932    -0.72928083    -0.38637113
O       3.65014148     2.74420164     9.17227465     2.16125932     0.72928083     0.38637113
O       0.28602268     0.48840168     2.73784891    -2.16148506     0.72914070    -0.38612842
O       7.58632464     4.02311411     9.17231266     2.16148506    -0.72914070     0.38612842
O       3.65012775     0.48844387     8.69296796     2.16125932     0.72928083    -0.38637113
O       4.22221957     4.02307192     3.21719380    -2.16125932    -0.72928083     0.38637113
