# total energy = -19961.00619214 eV

CRYSTAL
PRIMVEC
        7.60600008     0.00000000     0.00000000
        0.00000000     7.60600008     0.00000000
       -1.89786986    -1.89786986     4.85670466
PRIMCOORD
24 1
Ti      3.80630899     6.72564800     1.32861601    -0.93755903    -0.86354491    -1.84814872
Ti      3.77814099     2.88222798     1.21798299     0.10330311     0.65333067    -0.34219673
Ti     -0.04381000     6.57180898     1.19047598     0.87957266    -0.78007402    -0.08376580
Ti      0.06416502     2.72297102     1.22547698    -0.10174168     1.41488477     0.18358429
Ti      5.70104522     2.78267121     3.57033779     0.51817518     0.42213956     0.40005094
Ti      5.71634622    -0.99845476     3.64148382     0.49196226    -0.15496867    -0.37646672
Ti      1.91305524     2.89329424     3.63101082    -0.37122090     1.56178763     1.11026986
Ti      1.88118422    -0.84445677     3.67628082    -0.75716831    -2.05785851    -0.39808919
O       3.79291202     4.80477301     0.70295800     0.34170077    -0.91038734     0.83001463
O       3.72382502     0.91802601     0.85020702     0.34680132     1.89298672     0.52363055
O       0.04569001     4.51772202     0.64388499    -0.50739608     1.83109896     0.60716572
O       0.06443299     0.84558000     0.75427100    -0.27182407     0.83056356     0.22192948
O       5.68156520     4.69683423     4.06185180    -0.04673290    -0.06132957     0.13591191
O       5.88276522     0.90410023     3.86090579    -0.71040687    -0.73741889     0.41717116
O       1.79925223     4.83545322     4.20784080     0.51985488    -0.21857085    -0.91483947
O       1.71357621     0.96818524     4.10220781     0.47084784     0.55620438    -0.52273941
O       3.80323822     3.06084922     3.09941481    -0.05460151    -0.70319800     1.35063287
O       3.70686621    -0.89123175     3.28239880     1.76704221     0.11804659     0.46911414
O       0.11202820     3.09426221     3.17942784    -1.64965331    -1.06205703    -0.48948989
O      -0.04133578    -0.97563177     3.15753683    -0.01400043    -0.22266250     0.29068440
O       5.71291800     6.46631400     1.61858599    -0.30035535     0.32401080     0.20603774
O       5.71715301     2.78841300     1.66241700     0.48372959    -0.30584775    -1.13663216
O       1.89235198     6.67809899     1.69592799    -0.66072773    -0.40232740    -0.20250710
O       1.89571998     3.03272900     1.62474000     0.46039836    -1.12480843    -0.43132200
