# total energy = -19075.06885323 eV

CRYSTAL
PRIMVEC
        7.60600008     0.00000000     0.00000000
        0.00000000     7.60600008     0.00000000
       -1.89786986    -1.89786986     4.85670466
PRIMCOORD
22 1
Ti      3.89462602     6.41610900     1.29979501     0.47463688     0.03026729    -0.40822346
Ti      3.73530398     2.61022600     1.14132701     0.28601091     0.83190388     0.88718930
Ti      0.21963999     6.78775801     1.09991000    -0.76114246     0.13961121    -0.12310009
Ti     -0.02293200     3.01710197     1.08702098    -0.18660559    -0.30476068     0.02087068
Ti      5.70820822     3.08341122     3.44062682    -1.01914505    -0.36591799     0.67102475
Ti      6.10837920    -0.61518078     3.65221379    -0.72358326    -1.70155825    -0.25151337
Ti      1.84506925     2.71696222     3.69275184     0.58319583    -0.00366357    -1.05869814
Ti      1.23353921    -1.27886679     3.91766884     1.76014445     1.79858683    -1.26557432
O       4.08985099     4.58179200     0.80695900    -0.29855455     0.67668298    -0.18009916
O       3.91833602     0.70130898     0.91206498    -1.34891640     0.37168061    -0.07201817
O       0.07733502     4.88098802     0.60943502    -0.25384794     0.36160857    -0.31935324
O       0.25545000     1.10372298     0.81517199     0.42496109    -0.22711925     0.07170527
O       5.78906920     5.05302122     3.90494879    -0.20117887    -0.72374884    -0.08187038
O       5.23562325     1.02582724     3.97468583     1.87852323     0.24793337     0.52091726
O       1.88419524     4.57818222     4.16723581    -0.32402931     0.30222635     0.75468899
O       1.56933022     0.79174521     4.08288681    -0.14629428    -0.39329048    -0.28841103
O       3.76963420     2.91366020     3.08973182    -0.37676317     0.00643830     0.56334948
O      -0.02872379     3.08152724     3.26727883    -0.14335088    -0.81090181    -0.81318007
O       5.96777702     6.78101402     1.76925497    -0.56274244    -0.28290399    -0.27168472
O       5.68796798     2.58350001     1.45290302     0.69425185     1.02270011     1.39404699
O       1.90998400     6.46686599     2.07006001     0.37667755     0.03541336    -0.00402249
O       1.86413302     3.10420598     1.60309401    -0.13224757    -1.01118799     0.25395592
