# total energy = -19961.73549144 eV

CRYSTAL
PRIMVEC
        7.60600008     0.00000000     0.00000000
        0.00000000     7.60600008     0.00000000
       -1.89786986    -1.89786986     4.85670466
PRIMCOORD
24 1
Ti      3.71207400     6.72072898     1.27852002     1.84571131    -0.65252566    -0.91194055
Ti      3.82243402     2.88945098     1.21048301     0.08775101     0.85622344    -0.46635946
Ti      0.07668498     6.55263800     1.15727397    -1.63106551     0.68940609     0.79982961
Ti      0.00071301     2.79649999     1.16057398     0.19084817    -0.60665176     0.82060490
Ti      5.71014723     2.78010523     3.61313283     0.32602526    -0.22488625    -0.35873253
Ti      5.66258520    -1.04140278     3.59834979     0.83648224     0.14431839    -0.03178502
Ti      1.92755824     2.96092420     3.59086680    -0.35396262    -0.51884804     0.86920443
Ti      1.87278221    -0.89704275     3.64269082    -0.78635034     0.46643223     1.24269278
O       3.71677198     4.82607202     0.81422699     0.26406319    -0.00002982    -0.18697249
O       3.78077603     1.06018900     0.93401002     0.11562924    -1.84719561    -0.69855459
O       0.06053301     4.66832201     0.78991299     0.31359551     0.47445767    -0.00577341
O       0.03880901     0.83235401     0.76272402     0.09305289     0.28129782    -0.15226439
O       5.74118522     4.63315124     4.04074081     0.18739235     0.99498541     0.04689900
O       5.58407620     0.89093324     4.12514680     0.24999745     0.03197425    -1.17837327
O       1.77340722     4.79758022     4.11040683     0.19253765     0.72186499     0.05043246
O       1.90899222     0.96100324     4.07023482     0.16053537     0.58030514     0.21794221
O       3.81922324     3.01691221     3.31440582     0.30073074    -0.44667638    -0.58656475
O       3.76366524    -0.89968377     3.27843081     0.64084744    -0.41077836    -0.26854360
O       0.02796622     2.82063222     3.16145581    -0.27466848    -0.15809256     0.29592303
O      -0.01964475    -0.85028280     3.21525081     0.14489457    -0.38107774     0.03418206
O       5.74335400     6.51515997     1.63613499    -0.60513918     0.28272041     0.16842223
O       5.74730802     2.79298901     1.58257198    -0.34963108     0.10091841     0.66529890
O       1.92074001     6.71756302     1.72363302    -0.78161591    -0.29976837    -0.60456479
O       1.98991199     2.88321600     1.63274799    -1.16766153    -0.07837445     0.23899775
