# total energy = -19516.80136019 eV

CRYSTAL
PRIMVEC
        5.93400000     0.00000000     0.00000000
        0.00000000     9.29699974     0.00000000
        0.00000000     0.00000000     4.64899994
PRIMCOORD
23 1
Ti      4.46667801     7.12452499     2.20448702     1.01718458    -0.27492533     0.36170987
Ti      4.53006101     2.23473701     2.37864798    -1.28567624    -0.40010828    -0.63303463
Ti      1.40921399     7.06645498     2.23515199    -0.83604670     0.07397941     0.47952377
Ti      1.43191199     2.26049202     2.35978001     1.26710284    -0.07148801    -0.33128856
Ti      3.03979902     4.33310298     0.14213198    -1.02545582     0.83729857     1.37923435
Ti      2.94428898     0.00120398     4.57553998     0.60150415    -0.35198981    -0.86057092
Ti      0.08753301     4.64574201     0.00547698    -0.18663953     0.98546281     0.01913313
Ti      0.05708298     0.18065900     0.05176401    -0.77430060    -1.55686113     0.76158161
O       4.42464202     5.53527198     0.92153001    -0.62694137     0.46518498     0.21519036
O       4.35961000     0.94485900     0.92033602     0.82632509    -0.03223316     0.76468262
O       1.50422200     5.50065702     0.98747502     0.01512709    -0.00725720    -0.43479659
O       1.62899501     1.00983202     0.80697700    -1.55372747     0.13571702     1.38148869
O       4.50126398     8.58900498     3.73971198    -0.63028098    -1.79615842    -1.38903977
O       4.33341800     3.69642300     3.77413400     1.55840148    -0.09724481    -1.31668684
O       1.25709898     8.49962398     3.55446401     1.67616037    -0.60573825     1.17429498
O       1.41228899     3.50539398     3.91228102     0.37923837     1.76111093    -0.78524065
O       2.89019601     1.48724901     3.29083198     0.90802836    -0.48422118    -0.55746885
O       5.83964003     6.06393302     3.20087200    -0.14793850     0.16955660    -0.06508030
O       0.04392399     1.39317098     3.36081498    -0.62677810     2.08400844    -2.45229314
O       2.78052302     7.97467401     1.33507398     1.34698936    -1.04431384     0.35007331
O       3.04126902     3.00679402     1.32562298    -0.34989359     1.18562738     1.05885215
O       0.04044698     8.02256598     1.36504299    -0.99119535    -0.77849279     0.18753042
O       0.00818902     3.21371402     1.42277098    -0.56118718    -0.19691341     0.69220499
