# total energy = -19910.65912544 eV

CRYSTAL
PRIMVEC
        6.54174408     0.00000000     0.00000000
        2.36445924     6.54860820     0.00000000
        0.00000000     0.00000000    11.89736329
PRIMCOORD
24 1
Ti      3.77224404     3.88069905     4.41383694    -0.25494708    -2.06384327     0.59336789
Ti      5.13395951     2.66790897     7.48352648     0.25494708     2.06384327    -0.59336789
Ti      6.60511563     2.66791120     1.53479726    -0.03358865    -0.90739844     0.02192766
Ti      2.30108796     3.88069702    10.36256628     0.03358865     0.90739844    -0.02192766
Ti      2.59001459     0.60639512     1.53484496    -0.25494708    -2.06384327    -0.59336789
Ti      6.31618899     5.94221303    10.36251859     0.25494708     2.06384327     0.59336789
Ti      1.11885837     0.60639271     7.48347878     0.03358865     0.90739844     0.02192766
Ti      7.78734522     5.94221550     4.41388464    -0.03358865    -0.90739844    -0.02192766
O       2.90306966     2.30587620     6.07113342     1.82859033     2.06925724    -0.73376046
O       6.00313390     4.24273183     5.82623000    -1.82859033    -2.06925724     0.73376046
O       2.03298286     2.30590261     0.12249006    -0.44248830    -0.43890238     1.36312201
O       6.87322077     4.24270547    11.77487303     0.44248830     0.43890238    -1.36312201
O       4.82090442     0.96842777     0.12245145    -1.82859033    -2.06925724    -0.73376046
O       4.08529914     5.58018025    11.77491164     1.82859033     2.06925724     0.73376046
O       5.69099128     0.96840134     6.07117203     0.44248830     0.43890238     1.36312201
O       3.21521221     5.58020669     5.82619139    -0.44248830    -0.43890238    -1.36312201
O       1.67587479     3.98323462     3.21377464     0.58671079     2.34702185     2.28912136
O       7.23032877     2.56537340     8.68358878    -0.58671079    -2.34702185    -2.28912136
O       4.43480089     2.56531240     2.73494488     0.63648017     1.98076601     1.32864402
O       4.47140266     3.98329562     9.16241834    -0.63648017    -1.98076601    -1.32864402
O       0.49364531     0.70893057     2.73490687     0.58671079     2.34702185    -2.28912136
O       8.41255824     5.83967746     9.16245635    -0.58671079    -2.34702185     2.28912136
O       3.28917318     0.70899157     8.68362666    -0.63648017    -1.98076601     1.32864402
O       5.61703037     5.83961646     3.21373669     0.63648017     1.98076601    -1.32864402
