# total energy = -19958.07400394 eV

CRYSTAL
PRIMVEC
        5.93400000     0.00000000     0.00000000
        0.00000000     9.29699974     0.00000000
        0.00000000     0.00000000     4.64899994
PRIMCOORD
24 1
Ti      4.45816900     6.62773598     2.25082299    -0.41424395     2.48215677     0.55662321
Ti      4.43613601     2.49878101     2.28416100     0.92527609    -3.40750665     1.10130571
Ti      1.44104702     6.79438702     1.98359102     0.50192786     2.31206306     1.95408772
Ti      1.56895498     2.51309102     2.31087101    -0.86555757    -2.84119500     1.16670174
Ti      3.03935599     4.70618099     4.46936999    -2.08679680    -1.54856367    -0.03425533
Ti      2.99828602     9.19353501     0.29800199    -1.03530907    -0.56067065    -1.31524934
Ti      5.86550801     4.62349201     0.03548398     2.49884041    -0.96515392    -0.54876361
Ti      5.92716197     0.00245602     0.25228700     0.97326704     0.01693252    -2.16161696
O       4.40665698     5.75255999     0.56524401    -0.24357715     0.66297128     1.07133306
O       4.41533601     1.01549702     1.11285103     0.01528444    -0.66208553    -1.32599321
O       1.44384198     5.78493299     0.52811699     0.52931089    -0.96761986    -0.06376570
O       1.53071198     0.86793800     1.14172802    -0.10803471     0.65506359    -0.82151970
O       4.52429398     8.40220203     4.02319800    -0.79250659     0.03087870     0.01640647
O       4.55428701     3.82081702     3.67875399    -1.37438705     0.29810538     0.59682577
O       1.46715800     8.29001100     4.01050298     0.54566208     1.30700844     0.80703513
O       1.30968501     3.64672400     3.82062201     1.29044847     1.28251121     0.11106964
O       2.85507298     5.77905500     2.93883100     0.65121259     0.20714820     0.03569361
O       2.91784002     1.55324101     3.17245201     0.34861884     1.20337648     0.23175778
O       5.93085902     5.95051499     3.04895601     0.35627404    -0.61163302    -0.14176785
O       5.93154298     1.53503700     3.21670001    -0.35317355     0.48675423     0.03172640
O       3.01337101     7.90846801     1.76664301     0.02791833    -0.00430968    -1.03171595
O       3.02760598     3.62318799     1.42146699    -0.61075550    -1.04230658    -0.09051315
O       5.91029699     7.80855199     1.53117300    -1.06736225     0.49779507     0.27322943
O       5.89501800     3.32254901     1.37503798     0.28766387     1.16827937    -0.41863514
