# total energy = -19073.65713811 eV

CRYSTAL
PRIMVEC
        5.17600016     0.00000000     0.00000000
        0.00000000     5.50899976     0.00000000
        0.00000000     0.00000000     9.26300011
PRIMCOORD
22 1
Ti      2.10118601     3.48001401     3.34522002     0.21124706    -1.10456278    -2.07965993
Ti      3.53285902     2.08968498     5.85308801     0.30406109     1.00309699    -1.62513449
Ti      4.54402600     2.31293602     1.25587398    -0.10628944     0.25633754    -1.14776607
Ti      0.49301201     3.05484898     7.96649902    -0.43663339    -0.01296505     2.02544589
Ti      1.91347700     0.38876202     1.33032001    -0.16613498     0.69128608    -1.45338474
Ti      2.94950498     5.21707601     7.98194602     0.38059617    -0.26808466     2.00555788
Ti      0.68891200     0.13746099     6.08351099    -0.56103497     0.64807096    -0.79988360
Ti      4.70258999     5.05484900     3.35723298    -0.84049265    -1.00969033    -1.18937939
O       3.59906799     3.47665500     4.38608400     1.13717698    -0.57591704     1.86589114
O       0.97174999     1.98480898     0.13049500    -0.88079342    -0.25946966     0.47797982
O       4.24241798     3.61247300     8.94046700    -0.97176885     0.30087215     0.39250938
O       3.36858500     0.81856598     0.23479002     1.33361294     0.52104402    -1.21587848
O       1.58840801     4.64379501     9.22446097     0.40502346     0.38508172    -1.10504769
O       4.29432900     0.67209501     4.77138499     0.02139904     1.01655389     1.61789555
O       1.14134600     4.78306600     4.27452798    -0.18435279     0.89729194     2.65594824
O       0.49961799     3.71741398     2.25847500    -1.88657516    -1.42321771    -0.43227356
O       4.69947700     1.57001000     7.23719799     1.12285233    -1.24582284    -1.51093144
O       2.68601799     1.94826400     2.29211300     1.13437962     0.85510578     0.44955575
O       1.50109297     4.10222602     6.83030402     1.57133851     0.55346256    -1.20262726
O       0.27248099     0.83101498     2.16837898    -1.50966389     0.45788613     0.94801160
O       2.24909698     1.20500899     6.86552601    -1.30342457    -1.12171050     0.17383492
O       3.00087899     4.74496301     2.27377802     1.22547744    -0.56464969     1.14933650
