# total energy = -19517.07193371 eV

CRYSTAL
PRIMVEC
        5.17600016     0.00000000     0.00000000
        0.00000000     5.50899976     0.00000000
        0.00000000     0.00000000     9.26300011
PRIMCOORD
23 1
Ti      1.86619099     3.27370299     3.28128901     0.11097631    -0.54006119     3.60225905
Ti      3.35641403     2.18483300     5.87463298     0.02971631     0.66436225    -3.00328178
Ti      4.45987602     2.13563598     1.42323999    -0.20033658    -1.74084883    -1.32505861
Ti      0.82238500     3.34126998     7.86779598     0.72996525     0.25748245     2.17312265
Ti      1.85269702     0.54117899     1.34976701    -0.55462187    -0.53079699    -2.65695277
Ti      3.30495799     5.09724398     7.86773602    -0.94127839     0.61796822     2.19549357
Ti      0.73575201     0.62073502     5.83669198    -0.36939516    -0.86333897    -3.06798464
Ti      4.41529199     4.87157698     3.37931301     0.15515456     0.27794021     3.55818569
O       1.78226898     1.89630101     4.79925501    -1.24580664    -0.11759613    -0.29013830
O       3.38167599     3.56761898     4.51996102     0.61140033     0.22603990     0.26996542
O       0.69453800     2.25584801     0.18374299     0.21645791    -0.22753294    -0.20913232
O       3.44382897     0.88239603     0.09370099     0.69033400     0.46427738     0.38498376
O       1.74123298     4.79623198     9.04979099    -0.46210634    -0.59550602     0.43704168
O       4.32193200     0.75747998     4.81250899    -1.15539968     1.15503921     0.12576196
O       0.81656500     4.73508899     4.45443602     1.32114797    -0.94516873     0.55119973
O       0.06569497     3.29970400     2.67970300    -0.07235550    -0.24474880    -1.05717708
O       5.10889599     2.11772301     6.76866900    -0.54538338     0.18804130     0.45774369
O       2.72603300     1.83077998     2.35956500     0.23028351     1.20143196    -0.46916942
O       2.52473202     3.40695500     7.13754000     0.69806119    -0.09362676     0.23533162
O       0.04001099     0.62065199     2.29507698     1.11420854     0.76235371    -1.93659521
O       5.06923198     4.83569902     7.12973998    -0.56015051    -0.12412828     0.53388951
O       2.48656998     0.64061102     6.66950098     0.07931651    -0.22537964     1.00230432
O       2.64631499     4.76132300     2.50509102     0.11981217     0.43379720    -1.51179251
