# total energy = -19071.73260260 eV

CRYSTAL
PRIMVEC
        7.60600008     0.00000000     0.00000000
        0.00000000     7.60600008     0.00000000
       -1.89786986    -1.89786986     4.85670466
PRIMCOORD
22 1
Ti      3.96659302     6.62872300     1.41640302     0.52293609     1.77484808     0.52906226
Ti      3.58567203     2.85244800     1.16202397     1.38292543    -1.45943017    -1.39970908
Ti      0.15559298     6.59478898     1.08769299    -0.49315397     0.55798384     0.00557955
Ti     -0.00373599     2.88526302     1.01609599    -2.00174005    -0.70083567    -2.01017250
Ti      5.65446223     2.96135024     3.39372679    -0.83351236    -0.51415552    -0.94620437
Ti     -1.26484878    -0.74908876     3.85395881    -2.89863990    -0.38167372    -0.83984936
Ti      1.73433224     3.00820523     3.78866579     2.53963791    -1.20615559     0.66744526
Ti      1.39525922    -1.14825277     4.07496979     2.53285714     2.59689692    -0.24519154
O       3.55583601     4.84818999     0.72832300    -0.71618799    -1.21510638     1.57940483
O       4.11072000     0.96907198     1.07121298    -1.68342142    -2.22582926     0.79378854
O       0.25538602     4.85095801     0.61559698     0.07764220    -1.63377186     0.44671623
O       6.98815500     1.06115898     0.36247599     1.22113844    -1.17024035     1.88527289
O       5.42965323     4.65741524     3.86809281     0.68802309     1.13765572     0.63079211
O       5.66390121     1.02607421     3.87433679    -0.19918446     1.49212022    -0.93372937
O       2.43989723     4.82802225     4.46732080    -1.15338394    -0.24649972    -2.37829907
O       2.16619723     0.74789923     4.24035281    -1.33015146     0.57442863    -1.49249200
O       3.49528220     2.64140322     3.07950981    -0.59984193     1.41720699    -0.07345439
O       0.06957125     2.99450325     2.99033783     0.49544276    -0.06230839    -0.08931681
O       5.88643702     6.51264702     1.99705297     0.10478689     0.30842888    -0.34593615
O       5.60685098     3.06359999     1.39896002     0.73112945     0.37910827     1.88146894
O       1.88886200     6.49651902     2.07440900    -0.23214011     0.39956321     0.76487622
O       1.71761098     2.06455599     0.37481498     1.84483868     0.17776614     1.56994754
