# total energy = -4984.27625944 eV

CRYSTAL
PRIMVEC
        4.16540496     0.00000000     0.00000000
        0.00000000     3.14242050     0.00000000
        0.00000000    -0.00008308     5.50939317
PRIMCOORD
6 1
Ti      2.08270243     1.57116855     2.75469664     0.00000000     0.00000000     0.00000000
Ti      0.00000000     0.00000000     0.00000000     0.00000000     0.00000000     0.00000000
O       2.08270243     0.61239522     1.07369961     0.00000000    -0.30479976     1.65001198
O       2.08270243     2.52994187     4.43569367     0.00000000     0.30479976    -1.65001198
O       0.00000000     0.95874030     3.82839739     0.00000000     0.30445524     1.65322149
O       0.00000000     2.18359680     1.68099589     0.00000000    -0.30445524    -1.65322149
