# total energy = -19519.19258829 eV

CRYSTAL
PRIMVEC
        7.60600008     0.00000000     0.00000000
        0.00000000     7.60600008     0.00000000
       -1.89786986    -1.89786986     4.85670466
PRIMCOORD
23 1
Ti      3.76363597     6.67573198     1.28223500     0.76435017    -0.62467186    -0.25477405
Ti      3.76783002     2.86240399     1.17764597     0.33944205     0.69236826    -0.03161790
Ti     -0.01106600     6.60189001     1.20970099    -0.55188853    -0.39830774     0.16237242
Ti     -0.03567200     2.79731498     1.11388800     0.11813658     0.69850291    -0.10967816
Ti      5.54847025     2.92650122     3.62755080     1.21263966    -1.58082125     1.04008926
Ti      5.76126925    -1.01127476     3.68682579    -0.74143161     1.16956955    -1.41909341
Ti      2.09828823     2.91227021     3.64842684    -1.71283511     0.09830565     1.54544183
Ti      1.84743425    -0.93370876     3.61504279     0.96909928    -0.32814848     0.49057104
O       3.94621800     4.75377402     0.83477500    -0.34516610    -0.57369869    -0.09306163
O       3.68257301     0.96620998     0.77963901    -0.10148739     0.36900461     0.19287343
O       7.31243800     4.70364300     0.75021797     0.78960356     0.49924157     0.20878394
O       0.10649401     0.89463002     0.76544299     0.04329277    -0.38674651     0.28832670
O       5.83285423     4.71134623     3.96548783     0.46617974     0.07930853     0.42959987
O       5.77631921     0.91756620     4.07441982    -0.04743790     0.44878622    -0.33661126
O       1.87784421     4.76466624     4.12123380    -0.48562243     0.14449271    -0.25881865
O       1.97429523     1.02802423     3.95235979    -0.46231820    -0.66645230     0.80922288
O       3.80514924     2.93284224     3.19905581     0.67336445     0.04009611    -0.61323096
O       3.79038223    -1.02385278     3.25623479     0.35616811     0.36538089     0.08499067
O       0.02985020    -0.74955777     3.14834883    -0.38507606    -0.58630070     0.39944442
O       5.71605999     6.61090200     1.65179699    -0.12219327     0.55867007    -0.02582468
O       5.75668101     2.66637499     1.73389699     0.41787538     0.00295651    -0.87861698
O       1.88634502     6.39722901     1.63801600    -0.13010250     0.37248742    -0.11326279
O       1.84697100     3.03649600     1.77935797    -1.06459266    -0.39402402    -1.51712626
