# total energy = -39034.70478179 eV

CRYSTAL
PRIMVEC
        7.60600008     0.00000000     0.00000000
        0.00000000     7.60600008     0.00000000
       -3.79573973    -3.79573973     9.71340985
PRIMCOORD
46 1
Ti      1.91663846     4.75892943     6.05093960    -1.61015292     0.44427548     0.34846148
Ti      3.69201998     6.76395800     1.29192000     0.94989622     1.75349686     0.00076799
Ti      1.92237643     1.01447443     6.06706464    -0.64769404    -1.19530759     0.17330424
Ti      3.93657602     3.02752401     1.20977301    -0.15988925    -1.24906398    -2.37231226
Ti     -2.01332856     4.70738243     6.05837264     0.90208962    -1.51366659     0.24310175
Ti      0.03915700     6.73737198     1.27254698    -0.61371047    -0.26383231     0.13135360
Ti     -2.03547754     0.87514143     5.98272162     0.96455922     1.05272547     0.84041706
Ti      0.07952899     2.93206801     1.17640299    -0.64616140    -0.05124828     0.20122258
Ti      3.85745344     0.99123345     8.58965164    -0.02503844     0.14197920    -1.04618458
Ti      5.68928701     2.77866502     3.56233901     1.76004624     0.43151020     0.51281649
Ti      3.63699545    -2.92693155     8.52427962     0.79959230     0.59013319    -0.75662812
Ti      5.61865698    -1.03656700     3.58232101     2.90877339    -0.40566958     0.15282771
Ti     -0.03281957     1.08377845     8.35920764     0.49492109    -1.33623983     0.17618002
Ti      2.01826198     2.59470603     3.43985200    -1.78641240     1.40371846     1.26595459
Ti     -0.07110253    -2.88449354     8.61984363     0.05355378     2.24667654    -0.68260603
Ti      2.07631500    -1.14158900     3.79607999    -2.68371462     0.27304971     0.23600062
O       2.10482844    -0.97556557     5.67725463    -0.34123102    -0.33333928    -0.09769604
O       4.02259601     1.16717901     1.08433599    -1.33923208    -1.68580638    -2.05013671
O      -2.03813057     2.73657845     5.69579362     0.04694528    -0.98121663    -0.83673652
O      -0.19747699     4.88379499     0.75145202     0.59861834    -1.12367740     0.34864583
O      -2.06478354    -1.09906553     5.73684264     0.01859525     2.00625568    -1.61740241
O      -0.18306898     1.04119101     0.69026600     0.19951614    -1.56751785     1.94333459
O      -3.32375553     2.88291146     8.94809165    -1.74772036     0.15808794     0.16245573
O       5.82707498     4.58538601     4.14061301    -0.50720325     1.66258956    -1.46931992
O       3.78055245    -1.02245258     8.91818863     0.43650509     1.99338910    -0.38162924
O       5.72739597     0.92333799     3.85840702    -0.03400697    -1.30402878     1.35030557
O      -0.32101755     2.89193245     9.18786360     0.51917765    -0.37216552    -1.91769374
O       2.13341100     4.58422701     4.15172399    -0.50989520    -0.28873859    -0.96492046
O       0.13913044    -0.78175355     8.83744560    -0.98952387     0.56095244     1.18178744
O       1.75229098     0.89231000     4.12871901     0.87613947     0.55800544    -0.91675520
O       1.86504246     1.18242847     7.96408962     1.01425044     0.81112498     1.58416215
O       3.87703702     2.85860598     3.10983801    -0.44379340     0.10436934     1.18576494
O       1.69621745    -2.61584353     8.11751260     2.03134503    -1.58588710     0.60881740
O       3.83321802    -0.86104298     3.36171802    -0.70337618    -0.42234705    -0.38063217
O      -1.85021354     0.88725144     8.07401661    -1.20797002    -0.18293252    -0.50047133
O       0.07535299     2.84335599     3.18349298    -0.09828560    -0.29138734    -0.61412802
O      -1.99055256    -2.84541454     7.86414561     1.06726403     0.65673455     2.75306192
O       0.04159201    -1.03817999     3.16814599    -0.96826573    -0.02177828     0.30623521
O       3.65231645     4.38905543     6.54579664     0.17858889    -0.05419862     0.02934427
O       5.52208901     6.61246302     1.47314998     1.74942963    -0.57275921     1.71349485
O       3.79278644     0.86407146     6.63273464     0.36070765     0.30942261    -1.39957461
O       5.72963302     3.05952902     1.53491603     0.96216527     0.47725554     0.79544639
O       0.07286443     4.66683846     6.43915562    -1.09169826    -0.66682434     0.22764324
O       1.87370700     6.63253101     1.64613601     0.35752205    -0.16865723     0.64363426
O       0.03783945     1.07459844     6.39932964    -0.75408555    -0.21516285    -0.41759462
O       1.95796302     2.99440599     1.54516301    -0.34114155     0.21770104    -0.69411969
