# total energy = -19955.50766765 eV

CRYSTAL
PRIMVEC
        5.13779402     0.00000000     0.00000000
        1.34603656     5.29990851     0.00000000
        0.00000000     0.00000000     9.26934022
PRIMCOORD
24 1
Ti      2.65986330     3.14072103     3.43885928     1.48398987    -1.79448798     0.89763930
Ti      3.82396744     2.15918783     5.83048145    -1.48398987     1.79448798    -0.89763930
Ti      4.97939259     2.15918966     1.19577408    -2.73109750    -0.35965993     1.15036700
Ti      1.50443817     3.14071940     8.07356676     2.73109750     0.35965993    -1.15036700
Ti      1.98684513     0.49076681     1.19581124     1.48398987    -1.79448798    -0.89763930
Ti      4.49698563     4.80914225     8.07352960    -1.48398987     1.79448798     0.89763930
Ti      0.83141990     0.49076478     5.83044429     2.73109750     0.35965993     1.15036700
Ti      5.65241086     4.80914423     3.43889645    -2.73109750    -0.35965993    -1.15036700
O       2.10010661     1.86618800     4.73007358     0.05605881     0.64630641    -0.75565316
O       4.38372407     3.43372087     4.53926716    -0.05605881    -0.64630641     0.75565316
O       1.41675063     1.86620939     0.09543308     0.55330623    -0.65321805     0.29863966
O       5.06708017     3.43369957     9.17390740    -0.55330623     0.65321805    -0.29863966
O       3.71070588     0.78376650     0.09540300    -0.05605881    -0.64630641    -0.75565316
O       2.77312485     4.51614236     9.17393747     0.05605881     0.64630641     0.75565316
O       4.39406198     0.78374514     4.73010366    -0.55330623     0.65321805     0.29863966
O       2.08976871     4.51616377     4.53923708     0.55330623    -0.65321805    -0.29863966
O       1.00540368     3.22370491     2.50388019    -0.17255297    -0.17304688    -0.41278562
O       5.47842700     2.07620395     6.76546055     0.17255297     0.17304688     0.41278562
O       3.28286350     2.07615453     2.13081968     1.11586613    -0.54300382    -0.99934600
O       3.20096724     3.22375438     7.13852090    -1.11586613     0.54300382     0.99934600
O       0.33238549     0.57375054     2.13079008    -0.17255297    -0.17304688     0.41278562
O       6.15144525     4.72615837     7.13855050     0.17255297     0.17304688    -0.41278562
O       2.52794904     0.57379996     6.76549010    -1.11586613     0.54300382    -0.99934600
O       3.95588169     4.72610890     2.50385058     1.11586613    -0.54300382     0.99934600
