# total energy = -4983.25276522 eV

CRYSTAL
PRIMVEC
        2.64046328     0.00000000     0.00000000
        0.00000000     4.13721010     0.00000000
        0.00000000    -0.00005369     4.13721010
PRIMCOORD
6 1
Ti      1.32023159     2.06857816     2.06860500     0.00000000     0.00000000     0.00000000
Ti      0.00000000     0.00000000     0.00000000     0.00000000     0.00000000     0.00000000
O       1.32023159     0.80627084     0.80628130     0.00000000     1.99175542     1.99175542
O       1.32023159     3.33088548     3.33092870    -0.00000000    -1.99175542    -1.99175542
O       0.00000000     1.26228555     2.87488714     0.00000000    -1.99149677     1.99149677
O       0.00000000     2.87487076     1.26232286     0.00000000     1.99149677    -1.99149677
