# total energy = -19943.48732213 eV

CRYSTAL
PRIMVEC
        5.41125541     0.00000000     0.00000000
        2.46678974     5.20417818     0.00000000
        0.00000000     0.00000000     9.95257751
PRIMCOORD
24 1
Ti      3.42313708     3.08399114     3.69233525     2.31026535    -3.80569329     1.09973605
Ti      4.45490788     2.12018697     6.26024232    -2.31026535     3.80569329    -1.09973605
Ti      5.67183139     2.12018873     1.28391378    -5.02952471     0.19484907     1.28202502
Ti      2.20621367     3.08398958     8.66866394     5.02952471    -0.19484907    -1.28202502
Ti      2.18974234     0.48190213     1.28395367     2.31026535    -3.80569329    -1.09973605
Ti      5.68830266     4.72227614     8.66862406    -2.31026535     3.80569329     1.09973605
Ti      0.97281880     0.48190022     6.26020243     5.02952471    -0.19484907     1.28202502
Ti      6.90522625     4.72227804     3.69237519    -5.02952471     0.19484907    -1.28202502
O       2.58129505     1.83247958     5.07872413     0.74818178     1.57711578    -1.20620624
O       5.29674991     3.37169853     4.87385349    -0.74818178    -1.57711578     1.20620624
O       1.86157137     1.83250061     0.10246738     1.05702230    -0.85176257     0.38611093
O       6.01647367     3.37167760     9.85010997    -1.05702230     0.85176257    -0.38611093
O       4.06335515     0.76960941     0.10243505    -0.74818178    -1.57711578    -1.20620624
O       3.81468982     4.43456875     9.85014225     0.74818178     1.57711578     1.20620624
O       4.78307889     0.76958843     5.07875640    -1.05702230     0.85176257     0.38611093
O       3.09496603     4.43458975     4.87382116     1.05702230    -0.85176257    -0.38611093
O       1.69704474     3.16547621     2.68843949     0.50371786     0.57146209     0.59596316
O       6.18100017     2.03870191     7.26413813    -0.50371786    -0.57146209    -0.59596316
O       3.86856717     2.03865348     2.28788095     1.71349177     0.11559658    -0.77817706
O       4.00947779     3.16552463     7.66469645    -1.71349177    -0.11559658     0.77817706
O       0.46364996     0.56338704     2.28784916     0.50371786     0.57146209    -0.59596316
O       7.41439495     4.64079108     7.66472824    -0.50371786    -0.57146209     0.59596316
O       2.77608302     0.56343546     7.26416981    -1.71349177    -0.11559658    -0.77817706
O       5.10196194     4.64074265     2.68840770     1.71349177     0.11559658     0.77817706
