# total energy = -19071.22772168 eV

CRYSTAL
PRIMVEC
        5.17600016     0.00000000     0.00000000
        0.00000000     5.50899976     0.00000000
        0.00000000     0.00000000     9.26300011
PRIMCOORD
22 1
Ti      1.41572298     3.21123001     3.59146900     0.01824096    -2.12987360    -0.73916775
Ti      4.41482398     3.20284700     5.73590599    -0.13016497    -1.60332921    -0.68101195
Ti      3.81319602     2.20076902     1.70084400     0.30910122     0.27324100     0.89855409
Ti      1.56649500     2.54198801     8.36420699    -0.66819294     1.21665161     1.73076136
Ti      1.29904903     0.40772202     1.18530597     0.98832239    -0.85033021     1.40460138
Ti      3.30351699     5.50192800     8.22472201     0.33679561    -2.72947899     0.38612122
Ti      1.79489800     0.20776901     5.59797599    -0.48970817     1.33141618    -1.83326485
Ti      3.89693498     4.97714302     3.50579198    -1.30657289    -0.97779347     0.46838369
O       3.29109302     3.31044498     4.21583598    -1.63155891    -0.82448110     0.93089704
O       0.31592501     1.82893098     0.63625600    -0.38892938     1.61925437    -3.49128608
O       0.36892402     3.00708899     7.15669097     0.12860766    -0.08357297     1.58211658
O       2.82953298     1.35209402     0.17691898     0.83811823     1.00471807     0.44202293
O       2.30433499     4.37552400     0.07708800    -0.14081449    -0.77890468    -1.08316683
O       3.31906602     0.72388400     4.73004900    -0.30534047    -0.33016371     1.13546643
O       0.44842999     4.28428903     4.88012102     0.38546944     3.16784041     0.50646843
O       4.90125202     3.53208500     2.55959998     0.33792510    -0.62352334    -1.64482375
O       0.81625099     1.81506998     4.79436202     0.07054415    -1.17958323     1.00336207
O       2.01919200     1.77132199     2.38862398     0.92003978     0.94229243     0.29003777
O       3.19028698     4.29933999     6.63634998    -0.60522634     0.18744892     0.86191766
O       4.51153298     0.59691998     2.27815902     1.26150709     0.33604665    -1.17026735
O       2.06561799     0.94992201     7.29429801    -1.20165179     1.15255270    -1.15602755
O       2.00061503     4.72034198     2.60899101     1.27348869     0.87957138     0.15830571
