# total energy = -19958.38516353 eV

CRYSTAL
PRIMVEC
        7.60600008     0.00000000     0.00000000
        0.00000000     7.60600008     0.00000000
       -1.89786986    -1.89786986     4.85670466
PRIMCOORD
24 1
Ti      3.99383099     6.58648301     1.18038701    -0.87085867    -0.20579374    -1.10956949
Ti      3.84013400     2.63324399     1.16153999     0.25044765     0.62372466    -0.64174939
Ti      0.06576102     6.71010702     1.23945398    -0.15484526     0.10713997     0.17419050
Ti     -0.02106999     2.94208300     1.35687201    -1.39231613    -0.41293243     0.79179568
Ti      5.57915321     2.89462321     3.67255579     0.34900759     0.50002704    -0.37494643
Ti      5.62132123    -0.74551078     3.66626784     0.97978299     0.15924828     0.45146788
Ti      1.90665923     2.91203023     3.61332582    -0.38828532    -1.90191590     1.94221873
Ti      2.00703823    -1.05334780     3.43343281    -1.32450814     1.77628302     1.97792520
O       3.82569301     4.59927401     0.88476600    -0.33072806     1.85811843    -1.04367312
O       4.24099502     0.80885103     0.71774798    -1.05966642    -0.49226694    -0.59826687
O      -0.33735701     4.76775700     0.97534500     1.62224380     0.69919608    -0.72979916
O      -0.27460002     1.15189801     0.95260202     0.81215034    -2.35862730    -2.46466143
O       5.77499224     4.71671622     4.13240981    -0.23626570     1.91152746     0.64292464
O       5.32983320     1.07083721     3.94789782     1.71832724    -2.79364320     1.26202903
O       1.64442921     4.73964621     3.67954479     1.17412760    -1.03815451     1.69485898
O       2.01216321     0.79328824     4.06527881    -0.53681646     0.67210718     0.93181441
O       3.72960522     2.68329421     3.24429581    -0.59533222     1.22890498     0.10296912
O       3.84063624    -0.83267077     2.99924981     1.58511268    -0.89593208     1.78107504
O      -0.11598877     2.65016221     3.24204083    -0.32702336     0.55377572     0.83008276
O       0.16286520    -0.86223480     3.26453383    -2.62855621     0.38117673    -0.66068917
O       5.77450598     6.69169202     1.66455498     0.75202841    -0.32974745     0.66464635
O       5.57707101     2.88076602     1.75783300     0.48170176     0.25082021    -0.27870383
O       2.02666002     6.83970697     1.59284300    -1.25859763    -0.45365821    -1.80243552
O       1.76371200     2.61465701     1.85583800     1.37886925     0.16062279    -3.54350366
