# total energy = -19075.69472732 eV

CRYSTAL
PRIMVEC
        7.60600008     0.00000000     0.00000000
        0.00000000     7.60600008     0.00000000
       -1.89786986    -1.89786986     4.85670466
PRIMCOORD
22 1
Ti      3.78456599     6.62854700     1.17325899     0.51828831    -0.21379888     1.14052816
Ti      3.83681500     2.83424001     1.24967801     0.08726327    -0.47379510     0.89445087
Ti      0.33925400     6.71668501     0.95566702    -0.96223597     0.27542284     0.45138535
Ti     -0.00060998     2.89252698     1.13650001    -0.09307088    -0.22052849    -0.66760107
Ti      5.75173723     2.87957024     3.60400183    -2.42348289     0.34706075     0.01655174
Ti      6.09741221    -0.86183278     3.52780782    -1.02592145    -0.46040401     0.97628834
Ti      1.78820920     2.80795022     3.68805380     1.95180587    -1.58598686    -1.11996730
Ti      1.31541124    -1.03821280     3.93797183     1.61991618     0.87970533    -1.54327336
O       3.74994399     4.62197201     0.73392402    -0.18946055     1.57817636     1.00005254
O       3.84327202     0.93885601     0.88429800    -0.75171474    -0.74387467     0.69167072
O      -0.27255200     4.88688602     0.74583602     1.62270840    -0.55237806    -0.15926653
O      -0.11678799     0.90816198     0.69239499     0.72367608     1.10534594     0.18564349
O       5.65050922     4.83913322     3.87003680     0.86048787     0.02975667    -0.40657641
O       5.58864925     1.01934424     4.04356280     1.07755025    -1.19650341    -0.13952045
O       2.05401023     4.70279722     4.21828681    -0.95810215     0.88519412    -1.43888988
O       1.98738723     0.84546321     4.06411779    -1.26276590    -0.32533980    -0.01973631
O       3.77283625     2.76417821     3.23733179     0.09919911     0.52304588    -0.82330328
O      -0.04749779     2.78871024     3.17731182     1.37196070     0.27284968     0.92303640
O       5.61425200     6.75432698     1.73176499    -0.53947241    -0.32023025     0.59026123
O       5.80324702     2.85655902     1.60360101    -1.94122963    -0.02220277     0.20366847
O       1.92168099     6.52659401     2.05802298     0.45553589    -0.01059295    -0.53141920
O       1.86968499     2.82951499     1.63987299    -0.24093508     0.22907741    -0.22398302
