# total energy = -19517.64946512 eV

CRYSTAL
PRIMVEC
        5.93400000     0.00000000     0.00000000
        0.00000000     9.29699974     0.00000000
        0.00000000     0.00000000     4.64899994
PRIMCOORD
23 1
Ti      4.51509900     7.12668303     2.17358201     0.29856304    -0.44172057     0.77305156
Ti      4.55110602     2.24037502     2.31421901    -1.20032973    -1.21444072     0.24735796
Ti      1.50972401     7.10257397     2.29930198    -0.90481036    -0.75220633    -0.41022506
Ti      1.44571002     2.30865101     2.32332202     1.43025483    -2.03369245     0.75215594
Ti      2.87548700     4.46776102     0.21731600     0.46267867     0.05272486     0.66239227
Ti      2.95712201     9.22878298     4.48424500    -0.36706394     0.56037214     0.49597498
Ti      5.86115701     4.65843899     0.04962899     0.01259095     0.89322728    -1.02517891
Ti      5.92721002     9.28978103     0.02401898     0.38687044     1.15549378     0.30921229
O       4.44428302     5.55496600     0.89232202    -0.45940745     0.82605487     1.05824434
O       4.39888702     0.89781699     0.94697502     0.68537202     0.16846234     0.34378902
O       1.55872599     5.64541298     1.01980600     0.05305988    -1.07428006    -0.62506395
O       1.56612500     0.85565501     0.96237498    -0.91522462     0.03101137    -0.02903702
O       4.54612402     8.46318801     3.62451999    -0.52927078    -0.68891603    -0.26364487
O       4.38217401     3.75780899     3.92210001     0.57870489    -0.38669894    -1.51086794
O       1.35946202     8.47606998     3.51455198     0.66682177     0.35447478     1.58094287
O       1.48782899     3.84731102     3.80487100     0.05392685    -0.24952720    -0.65500831
O       2.89150900     1.33834901     3.32866699     0.79327561     1.35753295    -1.01171996
O       0.02719998     6.17081698     3.21540501    -0.47015981    -0.75387961     0.25612491
O       0.01438298     1.47798698     3.37786401    -0.28644440     0.62489503    -0.74521190
O       2.96013800     7.96152999     1.32696498     0.49692526    -1.44038472     0.69253306
O       2.97043902     3.10793800     1.48952902     0.21857496     1.16204213    -0.11419687
O       0.00362598     7.84507400     1.31053699     0.35048674     0.47718587    -0.53211828
O       0.09512702     3.09670801     1.38294002    -1.35539533     1.37226949    -0.24950586
