# total energy = -19074.09088532 eV

CRYSTAL
PRIMVEC
        7.60600008     0.00000000     0.00000000
        0.00000000     7.60600008     0.00000000
       -1.89786986    -1.89786986     4.85670466
PRIMCOORD
22 1
Ti      3.89373002     6.58158701     1.05715898    -0.88929092     0.67696606     0.96763709
Ti      3.75615002     2.86294899     1.32086600    -0.07307926     0.13128289    -1.37567388
Ti     -0.02454398     6.98028699     1.13999200     1.25919824    -0.73862679    -0.05267575
Ti      0.00327503     2.91579099     1.39470797    -0.72892113    -0.94302108    -0.69528260
Ti      5.52728125     3.05350223     3.80836182     0.37615433     0.59215767    -1.75371515
Ti      5.79585024    -0.69212479     3.57511383    -1.95172822    -0.95605144     0.11297072
Ti      1.81912025     2.69338123     3.62221881     0.38619321     0.64028077     0.18024751
Ti      1.76119423    -1.10461576     3.72862884    -0.79715206     0.57077894    -4.17122999
O       3.54280200     4.80548702     0.83152802     0.14706304    -1.10536368     0.36021966
O       3.61815499     0.91478998     0.56702898     1.07788372     0.85701585     4.79654154
O      -0.09207102     4.61461898     0.75655900     0.36875624     0.99202838     0.19953002
O       7.22842100     1.19417001     0.60334800     0.23481303     0.79150592     1.13687308
O       5.68354925     4.96211222     4.06087182    -0.71755685    -1.28049135     0.90284630
O      -0.18918976    -1.20115478     3.33382583     3.93223172     0.97517891    -0.93670362
O       2.13747122     4.73354522     3.98543882    -0.13891161    -0.06767352    -0.11129538
O       1.73187924     0.99265820     4.07712883     0.43692983    -1.00885060     0.52740776
O       3.72904424     3.03959423     3.32016581     0.36912930    -0.91814514     0.30013630
O       0.03273221     3.06153921     3.25018381    -1.30245090     0.03028118     0.57814901
O       5.77507299     6.57497801     1.61338899    -1.65675753     0.75894725    -0.40992193
O       5.51813500     2.95122300     1.71386901     1.55705242    -0.43968966     0.13800427
O       1.91774502     6.89960502     1.80126702    -0.39081425    -0.43321433    -1.01316286
O       1.92400799     2.44898500     1.66647298    -1.49874261     0.87470428     0.31909819
