# total energy = -19961.36895488 eV

CRYSTAL
PRIMVEC
        7.60600008     0.00000000     0.00000000
        0.00000000     7.60600008     0.00000000
       -1.89786986    -1.89786986     4.85670466
PRIMCOORD
24 1
Ti      3.79699298     6.60347299     1.15650799    -0.55329364     0.14035863     1.12587544
Ti      3.73664698     2.82990399     1.18924797     0.14878002    -0.45754186    -0.04248287
Ti      0.03765599     6.76116897     1.15555499     0.28083965    -1.22988354     1.36107798
Ti     -0.03944900     2.86843301     1.18269602     0.14401937     0.86209481     1.03754515
Ti      5.69806320     2.95798721     3.65714382     0.67188478    -0.77842183     0.30415827
Ti      5.67892022    -0.89885778     3.58370783     1.54493558     0.16578556     0.44237440
Ti      1.91092721     2.84777023     3.69612381    -0.55526130    -1.44851943    -1.53971084
Ti      1.90738622    -1.04876179     3.67390683    -1.15773502     1.03979101    -0.93201881
O       3.78800199     4.69638401     0.74484000     0.11212174     0.34030928     0.79979567
O       3.74332800     0.90389798     0.75433698     0.41040452    -0.84029467     0.82280422
O       0.00988101     4.88316802     0.86580500    -0.39511057    -1.32433176    -0.58377845
O       0.09654098     0.99209098     0.74989401    -0.69497664    -0.21355719    -0.06470723
O       5.94344920     4.76436323     4.05989681    -0.63559339     1.08889730    -0.25360857
O       5.85128822     1.01733125     4.18013879    -0.92527018    -0.36808466    -1.74704673
O       1.65851723     4.65656924     4.07957379     0.50727858     0.99598660     0.07358474
O       1.93451221     0.88954225     4.08461283     0.16671091    -0.00696666    -0.03151171
O       3.76666324     2.88796124     3.35867980     0.17159215     0.16889891    -0.68590553
O       3.82517924    -1.20082680     3.17242682    -0.20960849     0.44560088     0.49312851
O      -0.04637879     2.79092125     3.12981181     1.18362166    -0.02244600     0.88266493
O       0.01696823    -0.89258676     3.24113382    -0.34383890     0.12971555    -0.17333561
O       5.70869803     6.67283500     1.64131600    -0.52089669     0.37019965    -0.58514499
O       5.69237000     2.87119399     1.70269099    -0.97136622    -0.14668226    -0.79483318
O       1.85349798     6.50321898     1.71651701     1.49362483     0.62290011    -0.58826991
O       1.92758899     2.75369902     1.58171699     0.12713698     0.46619157     0.67934510
