# total energy = -4988.05794974 eV

CRYSTAL
PRIMVEC
        3.66789633     0.00000000     0.00000000
        1.24560951     3.44991601     0.00000000
       -2.45678638    -1.72498150     4.75665201
PRIMCOORD
6 1
Ti      0.93410138     2.58756933     1.18916305     0.00058030    -0.00058030     0.00000000
Ti      1.52261744    -0.86263527     3.56748906    -0.00058030     0.00058030     0.00000000
O       0.31144059     0.86247425     0.77481979     0.00002237     0.00038438    -0.96510250
O       2.14527806     0.86245969     3.98183242    -0.00002237    -0.00038438     0.96510250
O      -0.31141084    -0.86245341     3.15314580     0.00038438     0.00002237    -0.96510250
O       2.76812943     2.58738731     1.60350641    -0.00038438    -0.00002237     0.96510250
