# total energy = -19074.59819214 eV

CRYSTAL
PRIMVEC
        5.17600016     0.00000000     0.00000000
        0.00000000     5.50899976     0.00000000
        0.00000000     0.00000000     9.26300011
PRIMCOORD
22 1
Ti      1.83124401     3.30307301     3.25067499     0.42320631     1.84174770    -0.01488566
Ti      3.62359398     2.23267502     5.91454999    -0.93562916     0.25183656    -0.65667542
Ti      4.40429002     2.27315502     1.30189198     0.21077912    -0.48553219    -2.10945826
Ti      0.75434699     3.27828899     8.14162800    -0.78389288     0.78987301     0.61638467
Ti      1.84220799     0.62131902     1.28489099    -0.22132347    -1.14529807    -2.15081241
Ti      3.22235200     4.90902198     7.93926401     0.93700059     1.83667440     2.04218120
Ti      0.61247499     0.22720299     5.93184302     0.46894599    -0.05049263    -0.03522078
Ti      4.46554102     4.96775399     3.44602601    -0.62107411    -0.46917174    -0.51802863
O       3.40917300     3.47132301     4.37663400     0.33215528    -0.60143267     1.48450307
O       0.84422002     2.06381498     0.17649898     0.50828774    -1.07408826     0.80060557
O       4.31936501     3.78684998     9.04496902    -0.40738990     0.10225692    -0.06636971
O       3.43680600     0.88874599     0.24336301     0.50544102     0.66850738    -1.37031802
O       1.70941699     4.87607498     9.08699702    -1.53837901    -0.89296426    -0.40089684
O       4.59907900     0.95369001     4.68551699    -1.10773681     0.27685855     0.23608598
O       0.92318998     4.48680500     4.43023997    -0.80029961     0.53506991     2.28183305
O       0.17911898     3.64887902     2.34596203    -0.61921237    -1.01284301    -0.52978963
O       5.14371601     1.96480698     6.89647801     0.23478217    -0.22353359    -0.01461441
O       2.70375300     2.02614201     2.15595998     0.00016609     1.27271171     1.54885266
O       2.44336901     3.42206100     7.30176502     0.12299262    -1.84695521    -2.50847433
O       5.15715399     0.74440501     2.12895702     0.89032399    -0.01780258     0.75596760
O       2.32392301     0.65338700     6.40562102     1.61971126     0.62744479     0.44479381
O       2.60545102     4.89341803     2.49809498     0.78114462    -0.38286697     0.16433623
