# total energy = -4982.75360305 eV

CRYSTAL
PRIMVEC
        4.29891145     0.00000000     0.00000000
        0.00000000     2.88674986     0.00000000
        0.00000000    -0.00009252     5.72767872
PRIMCOORD
6 1
Ti      2.14945573     1.44332862     2.86383925     0.00000000     0.00000000     0.00000000
Ti      0.00000000     0.00000000     0.00000000     0.00000000     0.00000000     0.00000000
O       2.14945573     0.56256699     1.11624020     0.00000000    -0.33946725     2.04723342
O       2.14945573     2.32409030     4.61143829     0.00000000     0.33946725    -2.04723342
O       0.00000000     0.88072494     3.98008054     0.00000000     0.33945516     2.04733601
O       0.00000000     2.00593230     1.74759790     0.00000000    -0.33945516    -2.04733601
