# total energy = -19516.34290830 eV

CRYSTAL
PRIMVEC
        5.17600016     0.00000000     0.00000000
        0.00000000     5.50899976     0.00000000
        0.00000000     0.00000000     9.26300011
PRIMCOORD
23 1
Ti      2.01728501     3.16709600     3.38646198    -1.19642525     1.19855618     3.14775186
Ti      3.23796198     2.28960602     5.94613398     1.86149043     0.87930681    -2.25430141
Ti      4.41260001     2.09901601     1.55129501     0.03237946     0.37052001    -2.53746739
Ti      0.80583800     3.44754200     7.72641299    -2.08898610    -0.43379951     2.13463477
Ti      1.98649901     0.22691099     1.45674501     1.90851721    -0.87224836    -1.95462148
Ti      3.17994998     5.22281499     7.79953402     0.19580115    -0.49297528     3.05360446
Ti      0.71069500     0.55593600     5.90621100    -1.33546542    -0.15681910    -3.65278947
Ti      4.57459101     4.86123400     3.41112698    -0.00530007     0.42673541     2.93289112
O       1.77494199     1.98038098     4.89906900    -1.52469379    -1.03118039    -1.75608108
O       3.62969100     3.42137799     4.48577501     0.13628909     1.11410955    -0.49519902
O       4.74860100     2.99349802     9.15735299     0.71478083    -0.66742443     0.63287496
O       3.42347602     0.71804400     0.22408699    -0.29498843     0.37690304     0.14000845
O       1.83572800     4.46616799     8.99446699    -0.14949736     0.60055541     0.96450446
O       4.32055201     0.67322300     4.80940802    -0.67270908    -0.20811982    -0.29581813
O       1.04202203     4.67320102     4.30574700     0.62838402     0.85577272     1.67296937
O       0.20553800     3.31952799     2.59926801     0.85951111    -1.44178880    -1.45042899
O       5.05864399     2.22638898     6.50534998     0.38689383    -0.09386150     1.53046001
O       2.78097398     1.80164898     2.48488502     0.00432717    -1.98897529    -1.96446624
O       2.40930999     3.78694200     6.75828401     0.67357940    -0.08190458    -0.06124807
O       0.27577199     0.60018897     2.19505300    -0.07611959     0.95253751    -1.44270565
O       4.96042600     4.87449602     7.16038998    -0.16606144     0.61513615    -0.01107297
O       2.23024800     1.02469502     6.95541502     0.33389386    -0.16512556     2.04398329
O       2.99494897     4.43111100     2.27883801    -0.22560050     0.24408957    -0.37748282
