# total energy = -4988.65833001 eV

CRYSTAL
PRIMVEC
        3.42666847     0.00000000     0.00000000
        0.00000000     4.39288022     0.00000000
        0.00000000    -0.00006451     4.93028091
PRIMCOORD
6 1
Ti      1.71333424     2.19640780     2.46514057     0.00000000     0.00000000     0.00000000
Ti      0.00000000     0.00000000     0.00000000     0.00000000     0.00000000     0.00000000
O       1.71333424     0.85609507     0.96083919    -0.00000000     0.13538174     0.07178240
O       1.71333424     3.53672053     3.96944194    -0.00000000    -0.13538174    -0.07178240
O       0.00000000     1.34028663     3.42598065     0.00000000    -0.13531875     0.07175592
O       0.00000000     3.05252897     1.50430049     0.00000000     0.13531875    -0.07175592
