# total energy = -4987.35376752 eV

CRYSTAL
PRIMVEC
        3.08719688     0.00000000     0.00000000
        1.64270321     4.54970163     0.00000000
       -0.00001067    -0.00006409     4.91529531
PRIMCOORD
6 1
Ti      2.36494470     2.27481871     2.45764766     0.00000000     0.00000000     0.00000000
Ti      0.00000000     0.00000000     0.00000000     0.00000000     0.00000000     0.00000000
O       1.86373499     0.88665734     0.95791867    -1.32422738     0.79771282     0.62681281
O       2.86615441     3.66298009     3.95737669     1.32422738    -0.79771282    -0.62681281
O       0.50120522     1.38813547     3.41556731     1.32401295    -0.79738912     0.62643358
O       1.14148740     3.16150194     1.49972806    -1.32401295     0.79738912    -0.62643358
