# total energy = -4973.29579661 eV

CRYSTAL
PRIMVEC
        4.70639591     0.00000000     0.00000000
       -0.00000712     2.82383755     0.00000000
       -2.35322446    -1.41197029     5.12546815
PRIMCOORD
6 1
Ti     -0.00020173     2.11797853     1.28136670    -0.01057315    -0.01353918    20.45731385
Ti      2.35336590    -0.70611138     3.84410082     0.01057315     0.01353918   -20.45731385
O       0.00004984     0.70595032     0.83489677     0.00938196     0.01404748   -12.17073425
O       2.35311422     0.70591679     4.29057080    -0.00938196    -0.01404748    12.17073425
O      -0.00001939    -0.70595971     3.39763084    -0.00221835    -0.00016944    -1.39923471
O       2.35318340     2.11782677     1.72783667     0.00221835     0.00016944     1.39923471
