# total energy = -19074.94221453 eV

CRYSTAL
PRIMVEC
        7.60600008     0.00000000     0.00000000
        0.00000000     7.60600008     0.00000000
       -1.89786986    -1.89786986     4.85670466
PRIMCOORD
22 1
Ti      3.80056498     6.77827500     1.14098198     0.55189573    -1.46608779     0.27942734
Ti      3.75699200     2.82784702     1.18726203    -0.23107952     1.09204639     0.59501468
Ti     -0.11388201     6.52445201     1.08505700    -1.09257295    -0.13859820     0.56342481
Ti     -0.08966602     2.77380099     1.19352500    -0.08887304    -0.48971357     0.47241801
Ti      5.71700124     2.77171222     3.58028183    -0.31538500    -0.79219060    -0.28176524
Ti     -1.32822876    -0.98795276     3.83236382    -2.43020530     0.58981026    -2.09679171
Ti      1.96292422     2.92798625     3.70397881     0.04539927     0.11875647    -0.76582033
Ti      1.64235224    -0.77875576     3.70007882    -0.16609513    -0.79319436    -0.52922424
O       3.72190199     4.76579899     0.83959998    -0.27669040     0.53345834    -0.69081659
O       4.11318099     0.93589997     0.75517203    -0.87339584     1.05316358     0.98552683
O       0.09973499     4.50501801     0.71402998    -0.29459094     2.28059635    -0.56776047
O       7.23034599     0.97236399     0.57430400     0.86607951    -0.72288803     1.83242745
O       5.65985724     4.71868322     4.11633780     0.86648574     0.33501255    -0.85907273
O       5.47444422     0.84707424     3.75401881     1.55368685     0.09176965     0.66570282
O       1.93881622     4.92005824     4.09770383    -0.47627313    -1.10686572    -0.30908888
O       2.12811721     1.02506020     4.02929984    -0.72914970    -0.46234366     0.14880676
O       3.81556324     3.09289122     3.22658081    -0.77124767    -0.41356467     0.24280145
O      -0.00108275     3.04474021     3.09731683    -0.45961803    -0.60016461     1.08166993
O       5.65342102     6.45129802     1.91134102     0.68103894     0.18727151     0.01333015
O       5.60268498     2.88511998     1.63222601     1.22478658    -0.00092997    -0.14822415
O       1.58724599     6.56344798     1.77970300     1.93471291     0.81596020     0.07430131
O       1.87694498     2.62118399     1.72218201     0.48109086    -0.11130438    -0.70628744
