# total energy = -19959.54719001 eV

CRYSTAL
PRIMVEC
        7.60600008     0.00000000     0.00000000
        0.00000000     7.60600008     0.00000000
       -1.89786986    -1.89786986     4.85670466
PRIMCOORD
24 1
Ti      3.77682799     6.72120101     1.11104701     1.16109108    -0.93867772     1.17861881
Ti      3.93357601     2.73517999     1.25088199    -1.65268181     1.69571233    -0.36012555
Ti     -0.03495703     6.77999700     1.21071500    -1.13316015     0.11714593    -0.56663767
Ti     -0.04582998     2.87174598     1.27863802     1.29232357     0.00755622     0.04928112
Ti      5.62899425     2.91107020     3.70946384     1.80138753    -0.67902423     0.79841447
Ti      5.59630924    -0.86422276     3.58793283    -0.53653492     0.44594850     0.05455703
Ti      2.06267625     2.68569324     3.64786681    -2.24561596    -0.64072660    -0.01387522
Ti      1.86510522    -1.00390978     3.61594880     0.55990009     1.07830410    -0.82387740
O       3.82391202     4.61786400     0.73660600    -0.26080689     0.90251977     0.43623024
O       4.21271500     1.03081199     0.68186701    -1.21117053    -4.18520985     0.85274885
O      -0.17241500     4.74038002     0.78870202     1.39154454     1.31315800     0.66398687
O      -0.06873102     1.06782598     0.67749500     0.14561371    -1.58656510     0.93043630
O       5.35062923     4.91791623     4.06058882     1.28092073    -1.60313535     0.26629594
O       5.45386023     1.04934722     4.12405183     0.75904059    -0.50330829    -0.65866802
O       1.94983121     4.74192723     4.05434479    -0.46853565     0.20006610    -0.31412850
O       2.23309423     0.78621325     4.14742680    -1.32291251     2.34822641    -0.96862671
O       3.86481123     2.79432423     3.31314881    -0.96403523     0.62185444    -0.95544723
O       3.73284723    -0.78428879     3.11315781     0.45388986    -0.77689176    -0.92342541
O       0.11436420     2.67962220     3.19736779    -1.00929875     0.79936964     0.98022213
O      -0.15982180    -0.70857977     3.17964083     2.24516242    -0.38139656     0.28017630
O       5.72340899     6.46300199     1.57483499    -1.44255087     0.79935524     0.05713148
O       5.72838702     2.69991202     1.76085402     0.26701173     0.79916087     0.14567079
O       1.88413697     6.80723798     1.64192302    -0.37959087    -0.52531359    -0.95017724
O       1.93285298     2.53864499     1.65951901     1.26900803     0.69187203    -0.15878111
