# total energy = -4990.27569975 eV

CRYSTAL
PRIMVEC
        3.75662129     0.00000000     0.00000000
        0.56033302     3.71459694     0.00000000
       -2.15851101    -1.85732760     4.80790252
PRIMCOORD
6 1
Ti      0.42011316     2.78608968     1.20197537     0.00132875    -0.00132875     0.00000000
Ti      1.73833054    -0.92882001     3.60592663    -0.00132875     0.00132875     0.00000000
O       0.14012277     0.92864368     0.78316791    -0.00023834    -0.00003342    -0.01572693
O       2.01832076     0.92862586     4.02473409     0.00023834     0.00003342     0.01572693
O      -0.14009978    -0.92862390     3.18711917    -0.00003342    -0.00023834    -0.01572693
O       2.29854326     2.78589344     1.62078283     0.00003342     0.00023834     0.01572693
