# total energy = -19895.47423007 eV

CRYSTAL
PRIMVEC
        6.88221423     0.00000000     0.00000000
        3.44697387     6.46300601     0.00000000
        0.00000000     0.00000000    12.74651972
PRIMCOORD
24 1
Ti      4.53714520     3.82997138     4.72886793    -0.24704762    -1.92551556     0.21146174
Ti      5.79204308     2.63303480     8.01765193     0.24704762     1.92551556    -0.21146174
Ti      7.33976700     2.63303710     1.64434108    -0.12260747    -1.49344279     0.51236500
Ti      2.98942149     3.82996938    11.10217885     0.12260747     1.49344279    -0.51236500
Ti      2.81365853     0.59846859     1.64439221    -0.24704762    -1.92551556    -0.21146174
Ti      7.51552988     5.86453784    11.10212779     0.24704762     1.92551556     0.21146174
Ti      1.26593449     0.59846611     8.01760080     0.12260747     1.49344279     0.51236500
Ti      9.06325390     5.86454026     4.72891899    -0.12260747    -1.49344279    -0.51236500
O       3.39200242     2.27573434     6.50445147     1.70214317     1.85766823    -0.83515812
O       6.93718594     4.18727189     6.24206839    -1.70214317    -1.85766823     0.83515812
O       2.47663515     2.27576035     0.13123257     0.20320773    -1.23380807     1.85122196
O       7.85255329     4.18724593    12.61528688    -0.20320773     1.23380807    -1.85122196
O       5.21369914     0.95576885     0.13119120    -1.70214317    -1.85766823    -0.83515812
O       5.11548920     5.50723731    12.61532825     1.70214317     1.85766823     0.83515812
O       6.12906649     0.95574289     6.50449277    -0.20320773     1.23380807     1.85122196
O       4.20012180     5.50726336     6.24202702     0.20320773    -1.23380807    -1.85122196
O       2.34669164     3.93116658     3.44315298     0.61474020     3.23374321     2.99905900
O       7.98249672     2.53183965     9.30336682    -0.61474020    -3.23374321    -2.99905900
O       5.04146455     2.53177928     2.93014743     0.38328477     2.18924733     2.16292848
O       5.28772382     3.93122695     9.81637215    -0.38328477    -2.18924733    -2.16292848
O       0.62320484     0.69966354     2.93010675     0.61474020     3.23374321    -2.99905900
O       9.70598351     5.76334262     9.81641284    -0.61474020    -3.23374321     2.99905900
O       3.56423702     0.69972391     9.30340743    -0.38328477    -2.18924733     2.16292848
O       6.76495133     5.76328226     3.44311229     0.38328477     2.18924733    -2.16292848
