# total energy = -19898.42815079 eV

CRYSTAL
PRIMVEC
        8.55551871     0.00000000     0.00000000
        0.00002694     3.45387078     0.00000000
        0.00000000     0.00000000    13.24180985
PRIMCOORD
24 1
Ti      3.10098012     2.04676058     4.91261703     0.06096216    -0.03664980     2.31071246
Ti      5.45456577     1.40711008     8.32919294    -0.06096216     0.03664980    -2.31071246
Ti      7.37859345     1.40711126     1.70823505     0.05623519     0.03693905    -2.31139997
Ti      1.17695243     2.04675958    11.53357504    -0.05623519    -0.03693905     2.31139997
Ti      3.10096677     0.31982525     1.70828814     0.06096216    -0.03664980    -2.31071246
Ti      5.45457912     3.13404553    11.53352195    -0.06096216     0.03664980     2.31071246
Ti      1.17693909     0.31982401     8.32913985    -0.05623519    -0.03693905    -2.31139997
Ti      7.37860680     3.13404677     4.91267012     0.05623519     0.03693905     2.31139997
O       2.70788529     1.21616659     6.75719419     2.15917724     0.55498208    -1.76178045
O       5.84766066     2.23770407     6.48461578    -2.15917724    -0.55498208     1.76178045
O       1.56994325     1.21618050     0.13633186    -2.15936365     0.55525230    -1.76204527
O       6.98560276     2.23769015    13.10547775     2.15936365    -0.55525230     1.76204527
O       5.84764731     0.51076868     0.13628891    -2.15917724    -0.55498208    -1.76178045
O       2.70789858     2.94310198    13.10552070     2.15917724     0.55498208     1.76178045
O       6.98558941     0.51075476     6.75723720     2.15936365    -0.55525230    -1.76204527
O       1.56995641     2.94311595     6.48457277    -2.15936365     0.55525230     1.76204527
O       0.31085819     2.10083999     3.57694318    -1.48974195     0.43742220     0.40494864
O       8.24468770     1.35303067     9.66486679     1.48974195    -0.43742220    -0.40494864
O       4.58862881     1.35299857     3.04400385    -1.48945038    -0.43715326    -0.40554514
O       3.96691714     2.10087215    10.19780587     1.48945038     0.43715326     0.40554514
O       0.31084484     0.37390460     3.04396157    -1.48974195     0.43742220    -0.40494864
O       8.24470105     3.07996606    10.19784816     1.48974195    -0.43742220     0.40494864
O       3.96690379     0.37393670     9.66490896     1.48945038     0.43715326    -0.40554514
O       4.58864216     3.07993396     3.57690095    -1.48945038    -0.43715326     0.40554514
