# total energy = -19961.43068543 eV

CRYSTAL
PRIMVEC
        7.60600008     0.00000000     0.00000000
        0.00000000     7.60600008     0.00000000
       -1.89786986    -1.89786986     4.85670466
PRIMCOORD
24 1
Ti      3.77985002     6.63303601     1.22555800    -0.41428252    -0.78973957     0.18637599
Ti      3.82736701     2.82484701     1.22457902    -1.26161971     0.57810556    -1.43856721
Ti      0.01459799     6.61974598     1.19734698     0.43450914     1.90626056     1.02152718
Ti     -0.01743300     2.96790198     1.16324701     0.98943028    -1.73902026     1.00412517
Ti      5.70259624     2.90270020     3.63040179     1.59949827    -0.55692532    -0.64693530
Ti      5.68132221    -0.96944177     3.64294684     1.00349936     0.43875917     0.71998551
Ti      1.94211221     2.86104120     3.63091382    -1.69169729    -0.96265840    -0.39179899
Ti      1.89866622    -1.01731077     3.68191582    -0.99626094     0.82384655    -0.47332201
O       3.66721401     4.68090002     0.68878102     0.56392566     0.38072781     1.53743850
O       3.66210200     0.85568602     0.80442700     0.61990374     1.49320034     0.11887063
O       0.05417902     4.82342100     0.76690801    -0.62497216    -0.53899573    -0.20176534
O       0.08139402     0.98428699     0.82402598    -0.74436292    -0.30490698    -0.95510116
O       5.87297825     4.76555922     4.05143580    -0.74961672     0.22990479    -0.17016467
O       5.89594925     1.01861223     4.08428479    -1.08122333    -0.71960525    -0.56273293
O       1.79618221     4.68883223     4.17777983     0.54416467     0.69913489    -1.33283235
O       1.79784621     0.94677822     4.08578882     0.71692976    -1.36127982    -0.29804187
O       3.79134422     2.86283622     3.14506883     0.36665102    -0.16161755     1.22662415
O       3.77193623    -1.03091978     3.24410981     0.48564249     0.03979504     0.58326088
O      -0.01542779     2.76251623     3.14273881    -0.75026978     0.61858914     0.33613998
O       0.02520625    -1.06085079     3.17454184    -0.33261345     0.28917157     0.07392850
O       5.67687997     6.59997301     1.64512100     0.15869343     0.19516377    -0.05540627
O       5.66084903     2.95038802     1.62379701     0.26551792    -0.07624352    -0.43791765
O       1.90488199     6.64814698     1.61799500    -0.15264619    -0.26247759     0.63277186
O       1.82161902     2.98858599     1.68135302     1.05119900    -0.21918945    -0.47646262
