# total energy = -39032.99160521 eV

CRYSTAL
PRIMVEC
        5.93200024     0.00000000     0.00000000
        0.00000000     9.29399984     0.00000000
        0.00000000     0.00000000     9.29399984
PRIMCOORD
46 1
Ti      4.44625103     7.24364803     6.88185600    -0.36995874    -1.27927548     1.33534509
Ti      4.45552697     6.71833102     2.47159500    -0.84517772     0.07140393    -1.19362840
Ti      4.39304098     2.11792299     7.22061400    -0.09167735     0.94036925    -1.85856555
Ti      4.13675002     2.73223501     2.05115902     0.60276836    -0.90066703     0.72946029
Ti      1.52455003     6.90451600     7.18721201    -0.79485118    -0.08740880    -0.75459643
Ti      1.41586501     7.12692301     2.17711802     1.58216594    -0.15468199     0.23867020
Ti      1.40261102     2.49924600     6.78724799     0.83778502    -0.34513602    -1.52909501
Ti      1.32585201     1.97538899     2.81928202    -0.64257085     1.05107970    -0.21284937
Ti      3.03267799     4.69983700     4.62303798    -1.48616863    -0.01341602     1.22546407
Ti      3.01268901     4.64695700     8.98700099     0.51904319    -0.07513486     0.90472474
Ti      3.14147699     9.13553999     4.58431602    -2.33916327     0.75032994    -0.32669066
Ti      2.97224002     0.08112398     0.12704302     0.46607896    -1.45185081    -0.29329305
Ti      5.92708000     4.61266600     4.54795403     1.38769894     0.45877033     1.54685723
Ti      0.12444100     4.78837698     9.22265198    -0.74138533     0.81618157     0.28577334
Ti      0.01649599     9.07033201     4.85701799     2.46871735     0.97906950    -1.07325779
Ti      0.02881402     0.06268702     0.06862900    -0.27511508    -0.34957014    -0.69026998
O       4.41284798     5.57480401     5.44662998     0.90256193     0.98795293     0.93839001
O       4.32594401     5.49652398     0.89233699     0.42502639    -1.45459238     0.35233125
O       4.54678899     0.57276198     5.72985601    -0.89115831     1.10038731    -0.22274195
O       4.36799402     1.18366600     0.63604602     0.78861805     0.23920216     0.67826524
O       1.41417699     5.63362598     5.39021698    -0.12688682    -0.68145443     1.65544421
O       1.56874802     5.81055703     0.72827802    -0.31827981    -2.10394710    -0.46657055
O       1.55839102     1.05090199     5.18255799    -1.07747337    -0.32278875    -0.08681384
O       1.57002699     0.84018297     0.98558601    -1.65499658     0.99327820     1.63271745
O       4.52713498     8.35587002     8.50318402    -0.57641197     0.46009728    -1.34981038
O       4.54354100     8.14776598     3.80740502     0.60255059     1.05059916     0.58725432
O       4.53836798     3.68859398     8.28009602    -0.36186979     0.28450758     1.78506257
O       4.44440198     3.82825302     3.65894799    -0.81620034    -0.43243606    -1.14415804
O       1.45565999     8.38361198     8.50992701     0.37053081    -0.71711873    -0.57357528
O       1.52230801     8.34972399     3.71289502    -0.35190985     0.72472200    -0.44692500
O       1.40359900     4.04141000     7.97220101     0.38746848    -0.64612335     1.79875832
O       1.44628799     3.58854202     3.88917502     0.07057784    -0.75375311    -0.82456029
O       3.02561300     6.03173301     7.87566701     1.27049413     1.84259796    -1.71773460
O       2.84458897     6.05809900     3.32608402     0.96220306     0.09946136    -1.50519505
O       2.74061797     1.50529702     7.86767199     1.18429761    -0.80098892     0.49000719
O       3.09322698     1.52477900     3.12894798     1.32039437    -0.52694213    -0.30619022
O       5.78484102     6.14604900     8.02681501     0.29256465     0.31081692    -1.07882757
O       0.24415101     5.97184798     3.06373403    -1.81822184    -0.63859644     0.59612874
O       0.23503699     1.34960397     7.76362997    -1.43757707    -0.11616377     0.95166925
O       2.86103099     7.83893301     5.92723098     0.11443496    -0.25604469     1.52201445
O       3.19074101     7.96287902     1.56613299    -1.12233143     0.05633521    -0.62730415
O       3.20225898     3.13059801     5.99924899    -1.32446855    -0.18930911     0.56501401
O       0.15094702     7.87735599     6.17772301     0.11709399    -0.52065064     0.37001685
O       5.78467899     7.78655700     1.45649497     0.57285562     1.61669176    -0.60743260
O       5.75148799     3.14433301     6.03753702     0.72297005     0.12630857    -0.52009220
O       5.88444901     3.00984801     1.75005701     1.49495409    -0.14211187    -0.77919110
