# total energy = -19004.97307023 eV

CRYSTAL
PRIMVEC
        7.60600008     0.00000000     0.00000000
        0.00000000     7.60600008     0.00000000
       -1.89786986    -1.89786986     4.85670466
PRIMCOORD
22 1
Ti      4.51274802     5.86188299     0.36025101    -5.06397390     2.33061615     1.88319287
Ti      4.83747822     3.19557420     2.78426181    -7.71784237     2.26943904   -13.08406319
Ti      1.22304700     6.19516803     0.54048799     4.00660014     3.64578527     9.82862398
Ti      0.44804702     3.03701798     0.80134798     6.90571132    -1.50964615    19.54562347
Ti      5.74496021     2.72416321     4.60552883    -8.82390668    31.50091616    36.53906101
Ti      5.73144524     1.60052924     3.71693582    -8.19101423   -47.97953947   -40.73660188
Ti     -0.35929775     2.57345623     3.98631583    34.34256702     1.12803696   -11.54408316
Ti      0.38698224    -0.94893779     3.91373080     4.02405716    -0.61547682     0.18114945
O       4.54796598     4.83654301     2.32839800    -3.75248712     6.32394836    -1.40164281
O       1.86685722    -1.61345477     4.73919482    -0.07798339    -2.52808029     1.40280932
O       2.06467802     4.24876001     0.91539600    -1.83107659     1.51940118     1.33443646
O       0.93135201     0.89422002     0.39113401    -0.81514413     0.55498491     1.86522805
O      -0.79941680     4.92646922     3.88051684    -0.10545769     0.24062681    -5.25543503
O       4.75532700     1.27802301     2.06299402     0.03376760     1.04821318     1.84973766
O       1.42581524     3.37250821     4.08163483     2.46618558     2.09377966     1.52878545
O       0.73140620     0.77553122     4.13509179    -1.98023174     0.07768900    -0.13139756
O       3.91294524     3.01003222     4.23936182   -11.88782718    -6.91691336    -0.27229921
O       0.31744602     2.24743398     2.34348299    -0.84061375    -0.78959893     1.13889628
O       6.45840698     5.60613099     0.18818601    -4.82578707    16.05228179    11.24303515
O       5.85153498     3.59467698     1.66670402    10.25457674    -0.26870378    -8.35605289
O       1.18680598     6.21028101     2.35276402    -0.84842579     0.90575319    -1.56893710
O       5.53077324    -0.02733476     4.79281783    -5.27169340    -9.08351363    -5.99006606
