# total energy = -19518.15854122 eV

CRYSTAL
PRIMVEC
        7.60600008     0.00000000     0.00000000
        0.00000000     7.60600008     0.00000000
       -1.89786986    -1.89786986     4.85670466
PRIMCOORD
23 1
Ti      3.75828499     6.66923501     1.24655798    -0.23842466     0.31599872    -0.82705992
Ti      3.80084999     2.74066999     1.25955102    -0.86938466     0.37843464     0.24455674
Ti     -0.09293099     6.55814499     1.16169700     0.98961129     0.34866177    -0.45560556
Ti      0.05981301     2.74698800     1.22603998     0.63619297     0.12827316    -0.48897849
Ti      5.62099520     2.86971124     3.62923480     0.58109396     0.62102937     0.72943535
Ti      5.68263721    -0.80609475     3.57412580     0.36708116    -0.98928630     1.03171698
Ti      2.00138022     2.81395025     3.82032483     0.06251820     0.71207860    -2.27521220
Ti      1.88846120    -0.94222475     3.52036981    -0.85313425    -0.53091449     0.74706798
O       3.55320700     4.70008899     0.74578199     0.53421784     1.35411698     1.92406211
O       3.83572098     0.89615897     0.81201799     0.00030108     0.26523330    -0.37322610
O       0.26580298     4.71822802     0.71076098    -0.80674922     0.44465009     0.98769607
O      -0.02306202     0.94711499     0.61966899    -0.40508002    -0.74956838     1.77296655
O       5.76498021     4.71598421     4.06645882    -0.02855802    -0.03180893    -0.58509382
O       5.89499525     0.93420423     4.18696984    -0.41341606     1.59848165    -2.21604389
O       2.07982820     4.77071320     3.84781284    -1.34681993     0.61557349     1.23190263
O       1.74667223     0.96177621     4.15428081     0.28077820    -1.01618596    -0.58827376
O       3.81669023     3.08312620     3.37397483     0.43139579    -1.63010829    -1.06021921
O       3.73586523    -0.67912179     3.17547382     0.57454741    -0.39072529    -0.17438077
O      -0.12277976    -0.91297676     3.22714380     2.01890217    -0.36130029    -0.66659268
O       5.69178499     6.77687199     1.61123302    -0.66864211    -0.94857467    -0.84775139
O       5.78864501     2.88938901     1.59979199    -0.31235393    -0.19908496     0.78741992
O       1.86653601     6.70710701     1.59637002    -0.25005324     0.10098217     0.25905725
O       1.90151701     2.64241802     1.69340800    -0.28402396    -0.03595638     0.84255622
