# total energy = -19518.03237463 eV

CRYSTAL
PRIMVEC
        7.60600008     0.00000000     0.00000000
        0.00000000     7.60600008     0.00000000
       -1.89786986    -1.89786986     4.85670466
PRIMCOORD
23 1
Ti      3.87994702     6.89222702     1.08318598    -0.57992359    -0.27112010     1.58303112
Ti      3.66107603     2.94355501     1.39409101     0.30057621    -0.62131219    -0.54019335
Ti     -0.02224000     6.61169900     1.18535000     0.27772552    -1.26870593    -0.87942379
Ti     -0.05046901     2.65359599     1.18350301     1.27203499     1.46779526    -0.47563986
Ti      5.68182021     2.70815422     3.67100683    -0.42412265     0.62494491     2.24538122
Ti      5.65140924    -1.05658377     3.50815380    -0.47100468    -0.46289259     0.70166357
Ti      2.04167622     2.89588324     3.87594580    -0.26372895    -2.01182521    -1.45021971
Ti      1.79381822    -0.88067477     3.49757984     0.73766777     0.98014603     1.67552993
O       3.98902802     4.72832002     0.87182301    -0.66199503     0.63667454     1.00549557
O       3.81766799     1.05090099     0.71043797     0.01041400     0.37554832     0.60142522
O       0.05573898     4.66257001     0.72814700     0.21973530     1.14483861     1.49671067
O       0.00029899     0.83503397     0.71785699    -0.22113218     0.56992842    -0.48997891
O       5.85878725     4.64944123     3.83489980    -0.43350050     1.04556263     1.57122358
O       5.73995520     0.88954124     4.05019683     0.35093540    -1.51456673    -0.24616265
O       2.03950125     4.73794220     4.08135082    -0.92733426     1.34724287    -0.82840383
O       1.66717123     1.00997421     4.10079883     0.00797891    -0.38191412    -0.52739876
O       3.84087823     2.81755521     3.42055179    -0.47158703    -0.17425581    -1.13715641
O       3.81494823    -0.94948776     3.10667581    -0.04170871    -0.10657047     0.26270128
O      -0.04233376    -1.18777877     3.18326681     0.24187199     0.56416761    -0.77831384
O       5.68285899     6.94447402     1.46235201     1.18012085    -0.99370012     0.91557789
O       5.85378001     2.94134798     1.93087798     0.72827193    -0.78457833    -3.56974229
O       1.84310600     6.90611300     1.69286898     0.30911382    -0.43956393    -1.71969893
O       1.88171699     2.76365200     1.64598298    -1.14040912     0.27415632     0.58359178
