# total energy = -19072.39667849 eV

CRYSTAL
PRIMVEC
        5.17600016     0.00000000     0.00000000
        0.00000000     5.50899976     0.00000000
        0.00000000     0.00000000     9.26300011
PRIMCOORD
22 1
Ti      1.86246002     3.34639998     3.11576099    -0.86593270     1.91115054    -0.02202356
Ti      3.52784602     2.31238102     6.07815498    -1.59508651     1.58584133    -0.82726149
Ti      4.31794999     2.22711601     1.21023102     0.99449562     0.12187522    -0.55673583
Ti      0.86295400     2.93958100     7.88090301     0.65611646     2.06514039     1.07634826
Ti      1.74690703     0.48431900     1.28269401    -0.71037781    -0.39623903    -1.61749394
Ti      3.34209602     5.04674999     8.04789002    -0.74861553    -0.52911034     2.14561904
Ti      1.39574299     0.31525698     5.95274600    -1.93659059    -1.40460703     0.05029414
Ti      4.34383798     4.98596901     3.64964500     0.79600586    -0.41108741    -1.04072304
O       3.26116403     3.58268498     4.37713201     0.02768179    -1.32264898     1.66394839
O       1.01839500     2.13082602     0.25969702    -1.26615668    -1.47919014     0.72037247
O       4.30256300     3.61237701     8.92814500     0.46531148    -0.56100772    -0.65492167
O       3.38837601     0.82605500     0.31129100     0.78811026     0.30459279    -1.32191441
O       1.81793500     4.56139899     8.96125001    -1.45611525     0.60022683     0.88342417
O       2.89364000     0.77748500     5.12874998     2.51485093     0.66608309    -1.98386008
O       1.03841002     4.97963301     4.16151699    -1.66915436    -0.47159834     1.15479393
O       5.02609700     3.38215998     2.61471199     1.46034189    -0.08800401    -0.03064730
O       0.14285902     2.03787000     6.26790799     0.42167830    -0.85404597     0.20485555
O       2.54631700     1.79172802     2.34959202     0.71118514     1.01545474     0.88977583
O       2.22717099     4.04595701     6.77181602     0.10647482    -0.63702730    -1.46861853
O       5.11068201     0.69066802     2.07858300     0.76614789    -0.28022130     0.62131477
O       2.33098398     1.29316002     7.38489300     0.83079573     0.87839381    -0.62517348
O       2.76714298     4.63130098     2.16005698    -0.29116674    -0.71397170     0.73862705
