# total energy = -19518.28939498 eV

CRYSTAL
PRIMVEC
        7.60600008     0.00000000     0.00000000
        0.00000000     7.60600008     0.00000000
       -1.89786986    -1.89786986     4.85670466
PRIMCOORD
23 1
Ti      3.81629297     6.67353198     1.27100702    -0.18801944    -1.19346051     0.29693270
Ti      3.64397598     2.73050302     1.18661701     0.98999927     0.70916014     1.79841534
Ti      0.00262498     6.69750498     1.16376899     0.19774465     0.70107273    -0.84772748
Ti     -0.02080101     2.96097802     1.04041100    -0.56938129    -0.71910337     1.07925772
Ti      5.66378924     2.94163823     3.53342482    -1.16243731     1.56877743    -0.42902446
Ti      5.76687122    -0.81625877     3.59668479    -0.42828013    -1.30566272     0.67025265
Ti      1.87582323     2.72161723     3.79031079     1.66828482     0.30504736    -0.76580619
Ti      1.89403624    -1.09620078     3.66802682     0.89618431     0.26332528    -0.37908076
O       3.83076698     4.62079998     0.79657401    -1.05068093     0.37776513     1.30974358
O       3.99427402     0.85452601     0.81602598    -0.94449201     0.81218788     0.63666091
O      -0.03913800     4.80379498     0.81400802     0.50479644     0.69496353    -0.40793884
O      -0.18800001     0.98185097     0.73146102     0.66935045     0.86425454    -0.63754743
O       5.92274821     4.85484921     4.04557680     0.08491997    -1.21297287    -0.20673477
O       5.82487122     1.14144824     3.96346981     0.33789065    -1.75971816    -0.32660350
O       1.92303621     4.67918120     4.17792181    -0.93514605    -0.48386560    -0.61857525
O       2.06134822     0.83484622     4.15353181    -0.91053338     0.08899157    -0.51269847
O       3.75755425     2.78144823     3.30598984     0.58552063     0.21867729    -1.02642359
O       3.79981122    -1.20318375     3.34675083     0.63954955     1.04051786    -1.71448679
O       0.07788521    -0.78393080     3.37254779    -1.33958201    -0.32083574    -0.80793784
O       5.71807600     6.68565099     1.50188701    -0.11607558    -0.33876456     1.82452824
O       5.75650300     2.97805499     1.52786702    -0.20479461    -0.29663779     1.60053237
O       1.83472600     6.70513402     1.60802599     1.32995914    -0.18030690     0.73969354
O       1.75195601     2.72912398     1.82094099    -0.05477712     0.16658749    -1.27543168
