# total energy = -19007.04856600 eV

CRYSTAL
PRIMVEC
        7.60600008     0.00000000     0.00000000
        0.00000000     7.60600008     0.00000000
       -1.89786986    -1.89786986     4.85670466
PRIMCOORD
22 1
Ti      4.56402498     5.68707701     0.39136002   -11.12363718    -0.23547817     1.54149827
Ti      4.97842823     3.21924223     2.75595581    -2.19774406     5.18239947   -16.13099306
Ti      1.19185999     6.18433698     0.47502099     5.50803264     5.08259718    12.40681097
Ti      0.44632201     3.03405798     0.90005901     5.13936665    -1.67373607    11.95421309
Ti      5.74064424     2.84603723     4.66566379    -8.80207158    26.01384342    30.51458714
Ti      5.76518521     1.66107522     3.75361479    -7.83126535   -41.62031633   -23.48462105
Ti     -0.36319075     2.50806622     3.97434779    33.61358676     0.81372360   -14.11053666
Ti      0.35287920    -0.94730475     3.90416280     1.90980739     1.03402840    -2.40904331
O       4.54854400     4.72787000     2.15918098    -5.54776288     7.89793330    -0.89332653
O       1.63384222    -1.66600376     4.65858779     2.54695425    -2.56430637     2.94964289
O       1.99178200     4.30145400     0.77089399    -1.46188223     1.46979918     7.19061073
O       1.03548499     0.94010498     0.43034700    -2.45822570    -0.00933928     1.95719156
O      -0.71524978     4.83008525     3.83044381    -1.18227132     2.28336003    -8.41752491
O       4.78502898     1.48602201     2.24175702    -1.62758167    -0.53475237    -2.15874144
O       1.27870221     3.29585223     4.08662381     5.71903621     3.65485098     1.27171258
O       0.58455422     0.89015324     4.29424179    -0.67195960    -3.14908986    -0.99640517
O       4.12899122     2.80305925     4.16599680   -16.06098704    -2.56252923     2.09689147
O       0.32253999     2.17655598     2.29857198    -0.75470262    -1.65073986     2.79202675
O       6.21533502     5.71687000     0.27021902     2.75227877     8.38654567     2.56475606
O       5.95753098     3.85227200     1.43149802     6.56701180    -2.71513403    -3.68877927
O       1.09862600     6.22808301     2.26265699    -1.01184877     1.09561534     0.00838591
O       7.36305502     1.81373402     0.02687898    -3.02413420    -6.19927501    -4.95835629
