# total energy = -39040.30333986 eV

CRYSTAL
PRIMVEC
        7.60629642    -0.00000847    -0.00005503
       -0.00000847     7.60629642    -0.00005503
       -3.80314186    -3.80314186     9.70738094
PRIMCOORD
46 1
Ti      1.90141664     4.75412026     6.09305751     0.00028514     0.00003240    -0.22146745
Ti      3.80146278     6.65565629     1.23023400    -0.05747318     0.00002391    -0.03106717
Ti      1.90143119     0.95097204     6.09306819     0.00030828     0.00003188    -0.22151759
Ti      3.80146704     2.85250878     1.23026150    -0.05747369    -0.00016506    -0.03106768
Ti     -1.90168507     4.75404281     5.99489567     0.00043426    -0.00016224    -0.28921322
Ti      0.00134721     6.65566544     1.23024696     0.05735465     0.00030673    -0.03069770
Ti     -1.90169740     0.95089452     5.99498489     0.00052605    -0.00016069    -0.28940579
Ti      0.00135144     2.85251527     1.23027453     0.05735465    -0.00048311    -0.03069693
Ti      3.72624638     0.95065744     8.50394150     0.16024638     0.00025197     0.19971540
Ti      5.70487482     2.85219587     3.64874487     0.00009462     0.00018486    -0.21454295
Ti      3.72624563    -2.85249072     8.50393921     0.16010445     0.00025171     0.20039134
Ti      5.70487914    -0.95093317     3.64877232     0.00009410     0.00060935    -0.21454373
Ti      0.07715424     0.95065381     8.50389496    -0.16281594     0.00018486     0.20176997
Ti      1.90171719     2.85221106     3.63715944     0.00008330    -0.00002725     0.06207674
Ti      0.07720455    -2.85249444     8.50393313    -0.16269381     0.00018538     0.20199340
Ti      1.90172141    -0.95093827     3.63718690     0.00008408    -0.00002905     0.06207751
O       1.90160134     2.85235805     5.66346731    -0.00007636     0.00007045     0.21302549
O       3.78286916     4.75393568     0.78560638    -0.00679800    -0.00006531    -0.00659874
O       1.90160555    -0.95079657     5.66349469    -0.00007636    -0.00028128     0.21302600
O       3.78287384     0.95078739     0.78562394    -0.00672909    -0.00006376    -0.00654012
O      -1.90152445     2.85236766     5.65387101     0.00006788    -0.00006685    -0.19068594
O       0.02036183     4.75393971     0.78571744     0.00654372    -0.00007508    -0.00787503
O      -1.90152019    -0.95076401     5.65389850     0.00006813    -0.00006016    -0.19068645
O       0.02037138     0.95079144     0.78566995     0.00658485    -0.00007379    -0.00590891
O       3.87211749     2.85239871     8.88242896     0.33310094    -0.00208491    -0.08744968
O       5.70466261     4.75392618     4.03338538     0.00003831    -0.00007790    -0.03435561
O       3.87212162    -0.95086769     8.88245654     0.33310119     0.00204171    -0.08744968
O       5.70466579     0.95077792     4.03340969     0.00000463    -0.00007713    -0.03403962
O      -0.06901618     2.85236015     8.88243665    -0.33249878    -0.00031316    -0.08764843
O       1.90150884     4.75393118     4.07082370     0.00014321    -0.00000180     0.12820965
O      -0.06901185    -0.95082215     8.88246425    -0.33249878     0.00024348    -0.08764817
O       1.90150965     0.95078302     4.07086598     0.00014347    -0.00000360     0.12795820
O       1.90160714     0.95084295     8.05893467     0.00111252    -0.00010696     0.19825552
O       3.80499288     2.85240448     3.21645265     0.02161681     0.00001157     0.02101878
O       1.90165338    -2.85230527     8.05900379    -0.00046203    -0.00010696     0.19741812
O       3.80499719    -0.95073599     3.21648015     0.02161553    -0.00002674     0.02101878
O      -0.00184090     2.85240862     3.21648583    -0.02152991     0.00004319     0.02095476
O      -0.00183665    -0.95072815     3.21651327    -0.02152863    -0.00000489     0.02095553
O       3.87687384     4.75387297     6.53235295    -0.00156040    -0.00006942     0.06415342
O       5.70471394     6.65547245     1.62289947     0.00009770     0.00000283    -0.09554531
O       3.87682263     0.95072467     6.53229720    -0.00140819    -0.00006942     0.06600127
O       5.70471812     2.85229736     1.62292698     0.00009744     0.00015889    -0.09554454
O      -0.07376860     4.75388000     6.53235159     0.00237056    -0.00001337     0.06476740
O       1.90155982     6.65547305     1.63645980     0.00001825    -0.00005451     0.12118745
O      -0.07374391     0.95073180     6.53235767     0.00190853    -0.00001466     0.06503582
O       1.90156396     2.85229449     1.63648739     0.00001954     0.00010336     0.12118616
