# total energy = -19910.06034288 eV

CRYSTAL
PRIMVEC
        8.17510114     0.00000000     0.00000000
        0.00002737     4.18926432     0.00000000
        0.00000000     0.00000000    12.35127875
PRIMCOORD
24 1
Ti      2.96309732     2.48255423     4.58223633     0.26580074    -0.27748795     2.69984778
Ti      5.21203138     1.70671027     7.76904255    -0.26580074     0.27748795    -2.69984778
Ti      7.05050795     1.70671176     1.59335377     0.26578712     0.27762062    -2.70030004
Ti      1.12462080     2.48255293    10.75792530    -0.26578712    -0.27762062     2.70030004
Ti      2.96308370     0.38792214     1.59340330     0.26580074    -0.27748795    -2.69984778
Ti      5.21204506     3.80134249    10.75787576    -0.26580074     0.27748795     2.69984778
Ti      1.12460712     0.38792053     7.76899302    -0.26578712    -0.27762062    -2.70030004
Ti      7.05052157     3.80134410     4.58228586     0.26578712     0.27762062     2.70030004
O       2.58748086     1.47511124     6.30276302     1.38722431     1.09617378    -2.01708311
O       5.58764789     2.71415326     6.04851586    -1.38722431    -1.09617378     2.01708311
O       1.50013699     1.47512810     0.12716333    -1.38662190     1.09605011    -2.01764824
O       6.67499182     2.71413640    12.22411518     1.38662190    -1.09605011     2.01764824
O       5.58763421     0.61952110     0.12712327    -1.38722431    -1.09617378    -2.01708311
O       2.58749448     3.56974340    12.22415530     1.38722431     1.09617378     2.01708311
O       6.67497820     0.61950424     6.30280308     1.38662190    -1.09605011    -2.01764824
O       1.50015043     3.56976032     6.04847580    -1.38662190     1.09605011     2.01764824
O       0.29703710     2.54814807     3.33638852    -2.11304109     0.66634380     0.20852811
O       7.87809160     1.64111649     9.01489036     2.11304109    -0.66634380    -0.20852811
O       4.38459790     1.64107738     2.83929017    -2.11303338    -0.66622758    -0.20851834
O       3.79053080     2.54818718     9.51198852     2.11303338     0.66622758     0.20851834
O       0.29702347     0.45351585     2.83925073    -2.11304109     0.66634380    -0.20852811
O       7.87810528     3.73574865     9.51202796     2.11304109    -0.66634380     0.20852811
O       3.79051718     0.45355496     9.01492974     2.11303338     0.66622758    -0.20851834
O       4.38461158     3.73570954     3.33634908    -2.11303338    -0.66622758     0.20851834
