# total energy = -19072.21656231 eV

CRYSTAL
PRIMVEC
        5.93400000     0.00000000     0.00000000
        0.00000000     9.29699974     0.00000000
        0.00000000     0.00000000     4.64899994
PRIMCOORD
22 1
Ti      4.54164798     6.77991100     2.47150102    -1.28717237     0.30020520    -0.63185578
Ti      4.32397198     2.35905202     2.15550298     1.19762492    -0.90957796     1.39917043
Ti      1.62462200     7.29541400     2.48841898     2.29832334    -1.32148401    -0.50017797
Ti      1.46773099     2.31614601     2.10615398    -0.25176740     0.32824695     0.74767605
Ti      3.00039400     4.74978001     0.01421598    -1.22658404    -1.13643856    -0.64079216
Ti      2.95423101     0.12300498     4.62215002     1.07877152     1.06513747     1.16080980
Ti      5.77604297     4.45182702     4.46185800     1.33509646    -0.16456275    -1.66597674
Ti      5.83486002     9.00538598     0.09128800    -0.01985869    -0.87934589     0.59240193
O       4.52618701     5.44197301     0.86583198     0.52043827     1.06894913     2.35425565
O       4.78279199     0.81004300     1.03557998    -1.37950303     0.93997278     0.20122258
O       1.56980997     0.59316901     1.18189199    -1.16677296     1.45738794     0.08849380
O       4.22676502     8.36422102     3.80809200     2.74660588     0.17754451    -0.67509892
O       4.24421703     4.08267800     3.49049002     1.07391394    -1.88088196    -1.07744560
O       1.59073301     8.50412500     3.76317802    -1.34684178     0.83543734     0.58453332
O       1.62121801     3.95193603     3.53910803    -1.77171236    -0.43399595     0.71702592
O       2.84084801     6.21670099     3.64642501    -0.13877560     1.62460536    -1.95128676
O       2.83333300     1.60467799     3.26226900     0.94982859    -1.01961247     0.92663389
O       0.04122698     6.19954099     3.51838597     0.95731128     0.04558953    -0.28472227
O       3.35132001     7.95175598     1.41425901    -2.00686966    -1.69183227     1.49803941
O       2.99245703     3.15917998     1.32064501    -1.44146227     1.50607951    -1.76644443
O       0.11574599     7.74081201     1.65879499    -1.54653789     0.52876633    -2.28193718
O       5.74390202     3.10602899     1.07868898     1.42594334    -0.44019077     1.20547528
