# total energy = -19961.10009364 eV

CRYSTAL
PRIMVEC
        5.93400000     0.00000000     0.00000000
        0.00000000     9.29699974     0.00000000
        0.00000000     0.00000000     4.64899994
PRIMCOORD
24 1
Ti      4.47334501     6.99209700     2.24400201    -0.22980683     0.59800745     0.01452597
Ti      4.43114201     2.34757099     2.32816400     0.37570979     0.58072963    -0.29542423
Ti      1.47782500     6.89750303     2.36825499     0.07230330     0.80281080     0.13622815
Ti      1.48973699     2.27678702     2.41119498    -0.36033613     0.43930913    -0.65910408
Ti      2.95296802     4.66744902     4.63564700     1.23939765     0.53438574     0.22351071
Ti      2.92709702     0.06606498     0.04583299     0.61779055    -1.82993939    -0.09913355
Ti      0.04725002     4.59124702     4.61755703    -1.30503820     0.50005173     0.39559959
Ti      5.91851400     0.03567898     0.00050298    -0.74170106    -1.45767899    -0.40481134
O       4.46385702     5.56370499     0.84743101    -0.34827302    -0.36115940     0.12207757
O       4.48797401     0.92590699     1.04080799    -0.22520095    -0.58273201    -1.03050573
O       1.45512901     5.58488902     0.82935902     0.39365224    -0.12575707     0.28298189
O       1.45939899     0.79524699     0.92259302     0.17661480     1.18301283     0.94936965
O       4.47670698     8.42179100     3.68577903     0.14889238     0.46919076     0.56210815
O       4.41015701     3.80653701     3.64031201    -0.10159641    -0.40559039     0.55871532
O       1.49595001     8.37760502     3.67436102    -0.13319913     0.40784962     0.51492505
O       1.49006598     3.78470501     3.73098801     0.42370973    -0.80171294    -0.57051746
O       3.01205902     6.13678898     3.24289201    -0.57358916    -0.61462707    -0.11778228
O       2.91776498     1.44655200     3.37593199     0.38593944     0.69577600    -0.95172067
O       5.90804201     5.92771602     3.16030401     0.60148410     1.14723771    -0.44153237
O       5.92878300     1.48422698     3.27466498     0.08144512    -0.15412201     0.29293823
O       3.00323801     7.87195499     1.35384501    -0.19116005    -0.30138277     0.29229983
O       2.93493599     3.12157299     1.36905198    -0.01644890     0.43295414     0.14762894
O       0.02153201     7.91700898     1.40770901     0.02121007    -0.65863768     0.17836135
O       0.04753901     3.26158202     1.44450202    -0.31179960    -0.49797607    -0.10073920
