# total energy = -19517.55860477 eV

CRYSTAL
PRIMVEC
        7.60600008     0.00000000     0.00000000
        0.00000000     7.60600008     0.00000000
       -1.89786986    -1.89786986     4.85670466
PRIMCOORD
23 1
Ti      3.76191297     6.80718702     1.23002299     0.78367819    -0.94844174    -0.01842607
Ti      3.91710600     2.87627801     1.22697202    -0.02117536     0.55512838     1.44723671
Ti     -0.02130102     6.58659800     1.19048397    -0.08831974     0.17648676     0.04009740
Ti      0.07807799     2.71320199     1.15073101    -2.04483150     0.26827260    -0.02468748
Ti      5.79245721     2.79043620     3.67843182    -2.50272457    -1.15159111     0.21084391
Ti      5.62163720    -1.08159380     3.54365683    -0.01137688     1.04308048     1.78160726
Ti      1.96445322     2.95566820     3.69620382     1.45047219    -2.12786813    -1.11908155
Ti      1.71957523    -0.82823378     3.64123881     1.23131127     0.39126291    -0.30273131
O       4.06819902     4.78586698     0.75058797    -0.87059899     1.38681602     1.44253648
O       4.09024999     1.02840100     0.68409601    -0.97028276    -1.42309224    -0.15509671
O      -0.08299600     4.69459301     0.90742098     1.07747774     0.56180168    -0.42056810
O      -0.00114800     0.91064203     0.70372002     0.06218395    -1.37241167     0.04782562
O       5.49517024     4.62219521     4.14594781     0.81948184     0.46527446    -1.16914995
O       5.47880025     0.85165421     4.14144980     1.28445985     1.15437613    -1.50328318
O       1.86415625     4.67464821     3.80423779    -0.64175556     3.83003290     1.35214134
O       1.74799925     1.08466921     4.14339082    -0.91783969    -2.40493108    -0.62329452
O       3.82128624     2.67947821     3.24284782    -0.14144749     0.64277500    -1.13544534
O       3.82221023    -0.95631177     3.15235783    -1.01669710    -0.17763784    -0.64044429
O      -0.05321078    -1.08973879     3.29675379     0.68101246     0.09685863    -0.01930231
O       5.81002002     6.88695102     1.64838798    -1.33411739    -0.66288258     0.01765783
O       5.72694602     2.77425401     1.68785402     1.06290138     0.13556018     0.50144501
O       1.90932200    -0.60659599     1.66506500    -0.07161142    -0.80766762    -0.22766536
O       1.75704903     2.69825601     1.68686398     2.17979981     0.36879815     0.51778514
