# total energy = -19519.42317589 eV

CRYSTAL
PRIMVEC
        7.60600008     0.00000000     0.00000000
        0.00000000     7.60600008     0.00000000
       -1.89786986    -1.89786986     4.85670466
PRIMCOORD
23 1
Ti      3.81882101     6.66147198     1.18306300     0.09363653    -0.17430518    -0.39090604
Ti      3.87527798     2.84329900     1.26663200    -0.64812110    -0.02884753     0.10503089
Ti     -0.01129799     6.71417100     1.24737698    -0.28552548    -0.13769908     0.07025079
Ti     -0.03743098     2.89165802     1.13443400     1.08158765    -0.09239957     0.06828261
Ti      5.65472121     2.92511324     3.66875883    -0.43697971    -0.58743713    -0.03051798
Ti      5.64047724    -0.95073779     3.63279182     0.72602452     0.26142318     0.11822914
Ti      1.93429324     2.75475822     3.64264780     0.49670620     0.50647794    -0.21637152
Ti      1.92394121    -0.96507277     3.60831383    -0.95100488    -0.49310460     0.41539092
O       3.99208597     4.73939199     0.81486100    -0.76301397    -0.27812430    -0.18943484
O       3.97225903     0.90633098     0.85055199    -0.38041337     0.37786643    -0.60308461
O       0.04959597     4.81662901     0.74743000     0.04715508    -0.67892755     0.35184531
O      -0.12868501     0.97878497     0.76940599     0.32421957    -0.88670953     0.18563089
O       5.50691221     4.73898024     4.04691281     0.63117649     0.88224789    -0.19372524
O       5.71542323     0.95180921     4.09271379     0.11191528     0.42813383    -1.12644725
O       1.96547623     4.75783922     4.01972681    -0.62273247    -0.43776904     0.26573904
O       1.74783425     0.93937423     4.08635282     0.08504030     0.13506756    -0.07344050
O       3.79438922     2.78290522     3.19980682     0.07913858    -0.00630666    -0.04381341
O       3.75482623    -0.91132578     3.14564881     0.45110819     0.29218567     0.37621707
O       0.02633821    -0.92403180     3.25340380    -0.77163797    -0.24130738    -0.00883097
O       5.72399501     6.58499100     1.70157098    -0.39601483     0.07113962    -0.27644229
O       5.75926700     2.81761300     1.61290199     0.30277065     0.32705421     0.61714161
O       1.82650798     6.57066299     1.59674002     1.40708481     0.46970524    -0.02226679
O       1.85289398     2.73009999     1.64433200    -0.58211983     0.29163597     0.60152343
