# total energy = -19959.66390459 eV

CRYSTAL
PRIMVEC
        7.60600008     0.00000000     0.00000000
        0.00000000     7.60600008     0.00000000
       -1.89786986    -1.89786986     4.85670466
PRIMCOORD
24 1
Ti      3.77893798     6.47097600     1.26302200    -0.73107597     2.14334901    -0.69131590
Ti      3.83538802     2.87593601     1.26085301    -1.76492079    -2.29371643    -1.09164273
Ti      0.01410400     6.76401701     1.16644398     0.94546929    -0.31961550     1.27544248
Ti     -0.02140501     2.94031899     1.22638500     0.72857043     0.24687356    -1.33655016
Ti      5.72500325     2.91702022     3.61697979     0.53608883    -0.47844314     0.55007461
Ti      5.74274021    -0.97520477     3.57953383     0.62154128     0.49487815     0.28624411
Ti      1.92715723     2.79317422     3.63089583    -1.29932855    -0.15043067    -0.17094140
Ti      1.93172022    -1.08751878     3.63768480    -0.82857738     0.49703839     1.48257397
O       3.47311602     4.58391998     0.80473202     1.06275200     1.81140584    -0.79658076
O       3.59141101     0.78142102     0.99812402     1.35670479     1.23266599    -0.73324084
O       0.08699902     4.93575797     0.70079499    -0.59166736    -0.36075548     0.07842125
O       0.01205498     1.03518903     0.68638099    -0.41204977    -0.44394946     0.47089900
O       6.05347923     4.84533920     3.93371079    -0.77737719    -0.37750339     0.64544946
O       5.71709025     1.08925623     4.08473581    -0.28118777    -0.39698902    -1.12179098
O       1.63744121     4.65324024     4.10999280     0.94531502    -0.74336636     0.36197341
O       1.75972222     0.78339125     4.08988079     1.35891311     1.17747415     0.68116210
O       3.79161125     3.10902022     3.29607279    -0.02013560    -0.90403183    -0.18231622
O       3.77444125    -1.16653479     3.21090981     1.71871060    -0.24800073     1.14596424
O       0.11548325     2.67708421     3.05068584    -3.36505181    -0.16228424     2.13078454
O       0.11651822    -1.00190679     3.14702584    -2.26611846     0.68671800    -0.70034536
O       5.69618399     6.64055498     1.66895901     0.68555894     0.16724852    -1.04378291
O       5.61208000     3.11363698     1.60821602     1.15924374    -0.41112289     0.13318139
O       1.98049401     6.69363098     1.75467000    -1.70911601    -0.40816458    -1.15124529
O       1.73415899     3.08214400     1.65848003     2.92773888    -0.75927790    -0.22241825
