# total energy = -19957.93353409 eV

CRYSTAL
PRIMVEC
        7.60600008     0.00000000     0.00000000
        0.00000000     7.60600008     0.00000000
       -1.89786986    -1.89786986     4.85670466
PRIMCOORD
24 1
Ti      3.66592498     6.47383599     1.13575302     0.71498369     2.26069266     1.25741029
Ti      3.69859099     2.76957498     1.24460701     2.00810225    -2.19874936     0.56562208
Ti      0.03513102     6.85055601     1.22336700    -2.39886585     0.85123164    -1.41443251
Ti      0.04100600     2.98998000     1.23073103    -2.09809501    -0.64730143    -1.26627135
Ti      5.63697620     2.89178725     3.62879484     0.60285655     0.54186431     0.23035473
Ti      5.86461523    -0.80540777     3.55685182    -0.20876748    -1.03406876     0.35767169
Ti      1.75552325     2.51488424     3.61422579    -0.31511041     0.56195311     1.47596777
Ti      2.07815225    -0.99782075     3.67570381     0.10737419    -2.32470569    -1.23887829
O       3.85254802     4.57742698     0.66125402    -0.12229431     0.23908234     1.36924792
O       3.83324702     0.80299002     0.75098502    -0.11570766     2.71251741     1.24902027
O       0.00387501     4.96504598     1.03494402    -0.18453766    -3.13509123    -1.23421199
O       7.30709802     1.15980101     0.65659302     2.01165680    -0.89968255     0.75564184
O       5.80099622     4.86247222     4.12939482     0.06844639    -0.97850720    -1.71498429
O       5.65529420     0.98071425     4.05399580     0.42252265     3.09971849     1.10921237
O       1.74400623     4.82757721     4.17423281     0.12494898    -2.79732837    -1.92109583
O       1.92571623     0.70423321     4.05678080    -0.12519709     4.47427138     1.06037784
O       3.82083220     2.72182525     3.15739983    -0.50856131     0.43654005     0.15483857
O       3.92533222    -0.77930177     3.17583679    -2.45700417    -1.37693913    -0.65643888
O      -0.07104575     2.56601822     3.35469579     1.66905383     0.74505378     0.12405320
O       0.13429222    -0.63175276     3.08677181    -0.62900674    -0.60497746     2.37174533
O       5.77164900     6.90264398     1.68950399    -1.21419235    -1.19638977    -0.96632994
O       5.85344901     2.70250901     1.68144600    -2.60008843     1.65479758     0.81061385
O       1.81231302     6.78859999     1.53048099     4.69431932    -0.82086844     0.38149786
O       1.86057398     2.73824102     1.82376298     0.55316379     0.43688638    -2.86063255
