# total energy = -19961.26914144 eV

CRYSTAL
PRIMVEC
        5.07382313     0.00000000     0.00000000
        0.26986327     5.39333484     0.00000000
        0.00000000     0.00000000     9.08386729
PRIMCOORD
24 1
Ti      1.99893750     3.19608510     3.37004997     0.34113461    -0.07264398     0.05361909
Ti      3.34474868     2.19724954     5.71381742    -0.34113461     0.07264398    -0.05361909
Ti      4.48578723     2.19725138     1.17184742    -0.41210197    -0.38400983     0.40281771
Ti      0.85789902     3.19608346     7.91202007     0.41210197     0.38400983    -0.40281771
Ti      1.86400597     0.49941788     1.17188383     0.34149122    -0.08477265    -0.05366434
Ti      3.47968021     4.89391691     7.91198367    -0.34149122     0.08477265     0.05366434
Ti      0.72296748     0.49941588     5.71378096     0.41272752     0.36629415     0.40399836
Ti      4.62071876     4.89391891     3.37008643    -0.41272752    -0.36629415    -0.40399836
O       1.70092042     1.89908480     4.63542795    -0.29088469    -0.17407223    -0.16826000
O       3.64276577     3.49424984     4.44843945     0.29088469     0.17407223     0.16826000
O       1.02606867     1.89910657     0.09352350     0.39985014    -0.43956213     0.08539022
O       4.31761756     3.49422813     8.99034363    -0.39985014     0.43956213    -0.08539022
O       3.50783423     0.79758247     0.09349404     0.29056253     0.17322223    -0.16768844
O       1.83585195     4.59575217     8.99037309    -0.29056253    -0.17322223     0.16768844
O       4.18268603     0.79756075     4.63545746    -0.40052069     0.43992131     0.08521873
O       1.16100010     4.59577399     4.44840994     0.40052069    -0.43992131    -0.08521873
O       0.34848986     3.28053187     2.45377922    -0.25525433    -0.00060524    -0.22816338
O       4.99519638     2.11280277     6.63008823     0.25525433     0.00060524     0.22816338
O       2.82697989     2.11275252     2.08818336     0.04962514    -0.17897250    -0.09899368
O       2.51670635     3.28058212     6.99568387    -0.04962514     0.17897250     0.09899368
O       0.21355833     0.58386449     2.08815437    -0.25570993    -0.00094180     0.22764247
O       5.13012791     4.80947015     6.99571286     0.25570993     0.00094180    -0.22764247
O       2.38177482     0.58391474     6.63011716    -0.05010619     0.17918462    -0.09814599
O       2.96191142     4.80941990     2.45375018     0.05010619    -0.17918462     0.09814599
