# total energy = -4989.58453519 eV

CRYSTAL
PRIMVEC
        4.01357491     0.00000000     0.00000000
        0.20054482     4.00856150     0.00000000
       -2.10709549    -2.00431465     5.12381672
PRIMCOORD
6 1
Ti      0.15024647     3.00657334     1.28095404     0.00012136    -0.00012136     0.00000000
Ti      1.95677724    -1.00232697     3.84286240    -0.00012136     0.00012136     0.00000000
O       0.05017843     1.00213382     0.83462785    -0.00041986    -0.00135754    -0.69810182
O       2.05684512     1.00211244     4.28918865     0.00041986     0.00135754     0.69810182
O      -0.05015863    -1.00211499     3.39653621    -0.00135754    -0.00041986    -0.69810182
O       2.15718218     3.00636120     1.72728034     0.00135754     0.00041986     0.69810182
