# total energy = -4915.02338820 eV

CRYSTAL
PRIMVEC
        5.08480906     0.00000000     0.00000000
       -0.00000664     2.17920403     0.00000000
       -2.54243369    -1.08968085     5.51815235
PRIMCOORD
6 1
Ti     -0.00021727     1.63447069     1.37953804    -0.04445028    -0.03395452    76.32233194
Ti      2.54258574    -0.54494746     4.13861421     0.04445028     0.03395452   -76.32233194
O       0.00005403     0.54478765     0.89886192     0.04349974     0.03509994   -68.15842974
O       2.54231429     0.54473553     4.61929038    -0.04349974    -0.03509994    68.15842974
O      -0.00002126    -0.54482709     3.65793810    -0.00082790     0.00075950    -0.19146267
O       2.54238953     1.63435022     1.86021420     0.00082790    -0.00075950     0.19146267
