# total energy = -19954.11001551 eV

CRYSTAL
PRIMVEC
        5.93400000     0.00000000     0.00000000
        0.00000000     9.29699974     0.00000000
        0.00000000     0.00000000     4.64899994
PRIMCOORD
24 1
Ti      4.38315601     6.56897598     1.83052799     1.12537947     1.60778211     3.56259719
Ti      4.48103797     2.54489499     2.31800998    -0.23282633    -2.70928965     1.11074397
Ti      1.41058901     6.70920297     1.97548699     0.20137787     2.83330506     2.53686369
Ti      1.46549998     2.66946300     2.21503400    -0.14470611    -4.96728316     0.74532837
Ti      2.95592099     4.67647202     4.54776601     0.93171054    -4.75674084    -1.59558633
Ti      3.03460700     8.97877901     0.60840101    -1.31166959     4.04113495    -4.28659980
Ti      0.06704702     4.79694600     4.45910601    -1.37602150    -4.48564491    -0.85078684
Ti      5.92245500     9.28245801     0.54301000     1.66600682     2.08799957    -2.92378504
O       4.41298398     5.78415098     0.26072097     0.23045963     1.64155973     0.71298620
O       4.54047998     0.91549299     1.24756998    -1.50385140     0.28286979    -0.54200957
O       1.52598600     5.74277699     0.52296900     0.13781427     0.61585014    -0.43567488
O       1.55301198     0.91255601     1.24251898     0.05648999    -0.01707419    -0.69766884
O       4.50564599     8.45110398     4.25424499    -1.07660023    -0.90387448    -0.35991138
O       4.48987598     3.65321801     3.83850000     0.25006893     2.79288319     0.70498364
O       1.48686202     8.24675198     4.31715802     1.22759449    -0.13809554     0.29274823
O       1.44561901     3.75697702     3.68327501    -0.43660510     2.06376511     1.60300345
O       2.91446598     5.63862898     2.86330698     0.43132174     1.27091913    -1.77460511
O       3.00823598     1.90608301     3.13523699    -0.97106797    -0.83257776     0.27927461
O       5.92880697     5.77740201     2.71809503    -0.56209684     0.00083458     0.54313752
O       5.87330200     1.65387100     3.19769599     0.73760015     0.79234564    -0.38903633
O       3.05231200     7.85187901     1.93160603    -0.51109385    -1.44804018     1.89481940
O       2.86615199     3.29414002     1.22924197     1.09814351     2.68100313    -2.05989791
O       5.85997398     7.94565800     1.73270603    -0.18517220    -2.75925160     1.97359495
O       5.91013099     3.61875799     1.28588198     0.21774321     0.30561995    -0.04451867
