# total energy = -19961.75851296 eV

CRYSTAL
PRIMVEC
        7.60600008     0.00000000     0.00000000
        0.00000000     7.60600008     0.00000000
       -1.89786986    -1.89786986     4.85670466
PRIMCOORD
24 1
Ti      3.69922002     6.72692401     1.27942401     1.53262411    -0.73009021    -0.72761038
Ti      3.81958599     2.89385998     1.22403000     0.32687835     0.86436252    -0.78123847
Ti      0.08173402     6.55344399     1.16212298    -1.62978485     0.64775626     0.63475881
Ti      0.01502498     2.78110400     1.13807500    -0.19209027    -0.49669746     1.21507784
Ti      5.70943422     2.78142622     3.61823183     0.54811363     0.09780454    -0.52633175
Ti      5.67521121    -1.04174580     3.58962482     0.68938218    -0.00183757    -0.20046616
Ti      1.93904520     2.96557424     3.59081579    -0.67885402    -0.56159367     1.21727356
Ti      1.86501822    -0.90333377     3.65773882    -0.65642525     0.50748196     1.09425137
O       3.68578802     4.81470302     0.79766200     0.45248501     0.07196752    -0.12603835
O       3.78323898     1.03976800     0.92039900     0.00818408    -1.68659699    -0.47439982
O       0.08215699     4.67697601     0.78414898     0.15419940     0.05346482    -0.16566832
O       0.04824498     0.84073602     0.79399300     0.06572513     0.69385101    -0.40009851
O       5.75648622     4.66418622     4.03883783     0.04907466     0.64345969     0.03304512
O       5.59154522     0.88529523     4.09015480     0.12457771     0.13169915    -0.72977782
O       1.76374021     4.79972725     4.14235083     0.20495325     0.46170936    -0.29640382
O       1.90541821     0.94336725     4.09976979     0.20051938     0.84655506    -0.19136445
O       3.80959825     3.03115925     3.27179281     0.42664362    -0.40927941     0.08393241
O       3.73902521    -0.93645476     3.26957181     1.08204685    -0.27896865    -0.25988000
O       0.00089420     2.83826621     3.15442882    -0.01099533    -0.21880327     0.10731429
O      -0.00308680    -0.82823680     3.20757181    -0.16567835    -0.45835896     0.23773097
O       5.77162699     6.51534101     1.64361798    -1.03295033     0.21574675     0.20635553
O       5.70773598     2.80848702     1.59102702     0.54592794     0.04911734     0.46386858
O       1.89376901     6.68892702     1.70482500    -0.09976450    -0.18565017    -0.35684431
O       2.00315698     2.89777700     1.65742802    -1.94479267    -0.25709961    -0.05748629
