# total energy = -19960.60185257 eV

CRYSTAL
PRIMVEC
        5.93400000     0.00000000     0.00000000
        0.00000000     9.29699974     0.00000000
        0.00000000     0.00000000     4.64899994
PRIMCOORD
24 1
Ti      4.48842698     6.97800703     2.36823600     0.44072170     0.09108291    -0.16468513
Ti      4.45039401     2.45025598     2.38553501    -0.56217243    -0.92754818    -0.07255964
Ti      1.51925799     6.87089398     2.17351898    -0.68825578     0.66508139     0.74136167
Ti      1.48619701     2.39894299     2.39898500     0.42894270    -1.31982128    -0.75068861
Ti      2.97164300     4.65433500     4.64843600    -0.31012401     0.65748660     0.14013366
Ti      2.98356701     9.20034700     0.01507901    -1.45321324     0.47767284    -0.06219527
Ti      5.88654302     4.62518797     4.62396499     0.74984040     0.80438046     0.44873197
Ti      5.93122600     0.06129201     4.60270498     1.24390943    -0.10676510     0.71339269
O       4.46678400     5.58929902     0.79419297    -0.44287423     0.22989630     0.58781585
O       4.39659600     0.68750798     0.85509403     0.87278546     2.25260808     1.94112164
O       1.49046302     5.56281502     0.80325900    -0.03220205    -0.04826014     0.24463850
O       1.45374098     0.90381098     1.02738202    -0.20580531     0.02295765    -0.61616767
O       4.40211399     8.35748602     3.76783500     0.53592711    -0.93186506    -1.35356136
O       4.46106698     3.75173901     3.85662200    -0.51333225    -1.12808196    -1.41359253
O       1.46725500     8.36716599     3.84498200    -0.45096061    -0.10402276    -1.08609043
O       1.47480398     3.77229998     3.71611602     0.23653901    -0.11778382     0.38388358
O       2.94684697     5.96126300     3.05749000     0.48331538    -0.31064851     1.10212589
O       3.06850498     1.49649898     3.24568702    -0.58066818    -0.15366512    -0.02078121
O       5.86837001     6.00452901     3.22947298     0.15707004     0.23565095    -0.57639758
O       5.88231600     1.56582897     3.32242698     0.36542460    -0.78084638     0.02378348
O       2.89436000     7.82984000     1.41204700     0.69104208     0.18062135     0.07235910
O       2.97814098     3.35044798     1.51061002     0.07790497    -0.15442823    -0.58718696
O       0.03380802     7.78383502     1.37910899    -0.77489144     0.23126284     0.44154445
O       0.03236199     3.24038302     1.42861898    -0.26892335     0.23503465    -0.13698611
