# total energy = -19961.12984018 eV

CRYSTAL
PRIMVEC
        7.60600008     0.00000000     0.00000000
        0.00000000     7.60600008     0.00000000
       -1.89786986    -1.89786986     4.85670466
PRIMCOORD
24 1
Ti      3.82915701     6.54132102     1.23885998     0.67040846     1.05762085    -0.00753076
Ti      3.76102798     2.79009800     1.16777200     1.19317100    -0.60412616     0.23911345
Ti      0.02591302     6.80718702     1.28195898    -0.78136085    -1.82849931    -1.07442173
Ti      0.03395201     2.86240902     1.25259901    -1.06650607     2.83762837    -0.23136055
Ti      5.66057925     2.91076423     3.61968082    -0.01380066     0.25171521     0.90616405
Ti      5.69331622    -0.86623379     3.65629179    -0.52437283    -0.15324295    -0.75778074
Ti      1.91182924     2.72842324     3.61563182     0.43822361     1.03900940     0.19690004
Ti      1.89562922    -1.08371479     3.62342279     0.47103502    -0.64361807     0.39970616
O       3.84052300     4.76155700     0.83228802    -0.41748406    -2.36263462    -0.94815249
O       3.81713998     0.77508999     0.81268698    -0.01183505     2.27674406    -1.16037605
O       0.02141099     4.81667600     0.79647198     0.14501361    -0.14275721    -0.36890408
O      -0.11586399     1.09855498     0.80624297     0.35290332    -1.33223637     0.17828627
O       5.55508523     4.84759625     4.10173383     0.39833190    -0.04268033     0.47701643
O       5.64319324     1.03219325     3.89013082     0.79666509    -0.32148777     1.18696256
O       2.00451120     4.61978222     3.96042683     0.01600178     1.19070017     0.12694929
O       1.88967624     0.85411124     3.98848879    -0.35156429     0.38444151     1.17760168
O       3.81773223     2.66629122     3.28826483    -1.47773001     0.57830251    -1.02123741
O       3.82989823    -0.87777578     3.13226380    -0.67635645    -0.40979132     1.00570794
O       0.04986924     3.06966224     3.16977480    -0.60878680    -0.95655717    -0.02263986
O      -0.05435778    -0.93050178     3.28902780     1.77355765    -0.10040624    -0.21371892
O       5.76594098     6.66344301     1.67735700    -0.01169030    -0.00426161    -0.32437050
O       5.60582301     2.93648298     1.65096999     0.54285341    -0.11754522    -0.36719969
O       1.96395998     6.67877200     1.64492801    -1.81059517    -0.11751720     0.10242122
O       1.88347100     2.86854298     1.53965603     0.95391794    -0.47880078     0.50086291
