# total energy = -19941.76668991 eV

CRYSTAL
PRIMVEC
        5.72690973     0.00000000     0.00000000
        2.34432060     5.62629368     0.00000000
        0.00000000     0.00000000    10.46963866
PRIMCOORD
24 1
Ti      3.46497159     3.33413653     3.88416127     0.93680287    -3.00048107     0.95177132
Ti      4.60625883     2.29215731     6.58547751    -0.93680287     3.00048107    -0.95177132
Ti      5.89416895     2.29215922     1.35061626    -2.31341212    -0.69031394     0.68401757
Ti      2.17706151     3.33413484     9.11902257     2.31341212     0.69031394    -0.68401757
Ti      2.29281140     0.52098967     1.35065824     0.93680287    -3.00048107    -0.95177132
Ti      5.77841905     5.10530434     9.11898060    -0.93680287     3.00048107     0.95177132
Ti      1.00490119     0.52098760     6.58543548     2.31341212     0.69031394     0.68401757
Ti      7.06632927     5.10530641     3.88420324    -2.31341212    -0.69031394    -0.68401757
O       2.63807821     1.98111371     5.34257649     1.46120063     1.98903365    -0.99850654
O       5.43315215     3.64518014     5.12706229    -1.46120063    -1.98903365     0.99850654
O       1.87636989     1.98113644     0.10779080     0.23556662    -0.83127421     1.18254077
O       6.19486061     3.64515750    10.36184763    -0.23556662     0.83127421    -1.18254077
O       4.26099194     0.83203317     0.10775681    -1.46120063    -1.98903365    -0.99850654
O       3.81023848     4.79426068    10.36188162     1.46120063     1.98903365     0.99850654
O       5.02270033     0.83201048     5.34261042    -0.23556662     0.83127421     1.18254077
O       3.04852999     4.79428344     5.12702830     0.23556662    -0.83127421    -1.18254077
O       1.63402058     3.42223092     2.82811062     0.53716536     1.85767620     1.74442935
O       6.43720978     2.20406293     7.64152816    -0.53716536    -1.85767620    -1.74442935
O       3.98988820     2.20401057     2.40674207     1.22772587     1.24225235     0.46978494
O       4.08134216     3.42228328     8.06289653    -1.22772587    -1.24225235    -0.46978494
O       0.46186036     0.60908389     2.40670860     0.53716536     1.85767620    -1.74442935
O       7.60937006     5.01720995     8.06292995    -0.53716536    -1.85767620     1.74442935
O       2.90918195     0.60913630     7.64156152    -1.22772587    -1.24225235     0.46978494
O       5.16204841     5.01715755     2.82807720     1.22772587     1.24225235    -0.46978494
