# total energy = -19958.25800073 eV

CRYSTAL
PRIMVEC
        7.60600008     0.00000000     0.00000000
        0.00000000     7.60600008     0.00000000
       -1.89786986    -1.89786986     4.85670466
PRIMCOORD
24 1
Ti      3.74388099     6.52346901     1.15200300     1.45140499    -0.10544818    -0.89326842
Ti      3.83446900     2.56267800     1.26512300     0.77398179     1.39733929     1.16130062
Ti     -0.02424399     6.72373101     1.16862297    -0.95053539     0.93279220    -0.49451228
Ti      0.00463602     2.80777898     1.26958602    -1.55208814    -0.23327525     0.01182605
Ti      5.75564822     2.88993724     3.78292581    -4.98678730     2.68170813     0.08170120
Ti      5.67446724    -0.57565177     3.62193982     0.70075186    -3.99618408    -1.51079723
Ti      1.76756621     2.68639223     3.69370081     2.75565951     1.96254743     0.14061214
Ti      1.96836924    -0.87978279     3.54896782    -0.36110592    -1.00906375     0.40634321
O       4.02537900     4.55164599     0.77776599    -1.30721978     1.53268041    -0.18832592
O       3.98580401     0.79628502     0.73739400    -0.52811404    -0.29237285    -1.31977500
O       0.26539102     4.95628301     0.84626502    -0.12260773    -3.28550108     0.38474233
O      -0.05923102     1.08424503     0.66834600     1.07059516    -0.76644768     0.22939802
O       5.51616625     4.83014621     4.12053280     0.57751061    -0.21854539    -0.43266463
O       5.29208223     1.05325021     4.15844179     1.01455820     2.30242425     0.55333066
O       1.97240723     4.60444724     3.96470280    -0.91954896     0.52438003     0.27091904
O       1.95573423     0.88632924     4.14013479    -0.26835076    -0.68172800    -0.98999644
O       3.84871921     2.96383923     3.11564282     0.06090071    -0.70354227     0.30997694
O       3.85246224    -0.79177977     3.13170780    -1.84018909    -0.64054971     0.00496506
O      -0.17569976     2.90511823     3.42060180     4.37156168    -0.41659831    -2.12826640
O       0.02224624    -0.64843978     3.19949381    -0.33648579    -0.33156599     0.05733408
O       5.64196200     6.63492099     1.58917998     1.43280562     0.15670520     0.54498845
O       5.75413101     2.44090902     1.42281702     1.21193286     1.77551014     2.09372001
O       1.91382498    -0.57109200     1.49396602     0.26822581    -1.44255062     1.09973811
O       1.96576701     2.43386599     1.65415199    -2.51685613     0.85728633     0.60671012
