# total energy = -19943.19740947 eV

CRYSTAL
PRIMVEC
        5.49083269     0.00000000     0.00000000
        2.50306606     5.28071022     0.00000000
        0.00000000     0.00000000    10.09893894
PRIMCOORD
24 1
Ti      3.47347733     3.12934395     3.74663429     2.01481257    -3.68404921     1.05102211
Ti      4.52042123     2.15136619     6.35230470    -2.01481257     3.68404921    -1.05102211
Ti      5.75524068     2.15136798     1.30279487    -4.44665515    -0.04748855     1.15448463
Ti      2.23865799     3.12934237     8.79614430     4.44665515     0.04748855    -1.15448463
Ti      2.22194443     0.48898893     1.30283534     2.01481257    -3.68404921    -1.05102211
Ti      5.77195417     4.79172138     8.79610382    -2.01481257     3.68404921     1.05102211
Ti      0.98712495     0.48898698     6.35226423     4.44665515     0.04748855     1.15448463
Ti      7.00677370     4.79172331     3.74667482    -4.44665515    -0.04748855    -1.15448463
O       2.61925527     1.85942781     5.15341125     0.95723235     1.70871003    -1.18138557
O       5.37464330     3.42128233     4.94552781    -0.95723235    -1.70871003     1.18138557
O       1.88894742     1.85944914     0.10397425     0.92295182    -0.91411339     0.63086976
O       6.10495122     3.42126110     9.99496453    -0.92295182     0.91411339    -0.63086976
O       4.12311037     0.78092720     0.10394145    -0.95723235    -1.70871003    -1.18138557
O       3.87078820     4.49978300     9.99499728     0.95723235     1.70871003     1.18138557
O       4.85341829     0.78090591     5.15344400    -0.92295182     0.91411339     0.63086976
O       3.14048024     4.49980430     4.94549500     0.92295182    -0.91411339    -0.63086976
O       1.72200128     3.21202733     2.72797536     0.53779065     0.99770435     0.98140021
O       6.27189723     2.06868282     7.37096369    -0.53779065    -0.99770435    -0.98140021
O       3.92545786     2.06863368     2.32152626     1.59602959     0.44629637    -0.39333676
O       4.06844070     3.21207646     7.77741258    -1.59602959    -0.44629637     0.39333676
O       0.47046834     0.57167215     2.32149400     0.53779065     0.99770435    -0.98140021
O       7.52343017     4.70903801     7.77744484    -0.53779065    -0.99770435     0.98140021
O       2.81690777     0.57172128     7.37099584    -1.59602959    -0.44629637    -0.39333676
O       5.17699079     4.70898887     2.72794310     1.59602959     0.44629637     0.39333676
