# total energy = -19960.52106873 eV

CRYSTAL
PRIMVEC
        7.60600008     0.00000000     0.00000000
        0.00000000     7.60600008     0.00000000
       -1.89786986    -1.89786986     4.85670466
PRIMCOORD
24 1
Ti      3.77437801     6.53698901     1.26238900     0.84099659    -0.97345164     0.23344828
Ti      3.76762200     2.76417001     1.18318900     0.64521266     0.49938735     1.95431089
Ti      0.07782700     6.72755003     1.32729402    -1.16175622     0.06967152    -1.87144498
Ti      0.01977101     2.93881798     1.10186102    -0.47743398     0.30389962    -0.26140518
Ti      5.70636123     3.07302421     3.60964979    -1.96821080    -0.31948128    -0.54013215
Ti      5.75393125    -0.87335879     3.65887782    -1.03203502    -0.09882013    -0.56637130
Ti      1.75311824     2.77936624     3.63502082     1.41082936     0.02693386    -0.20106034
Ti      1.87275125    -1.02805979     3.70883782     1.18753206    -0.38302535    -0.36014407
O       3.77349799     4.59843298     0.74382699    -0.59617837     1.22465828     0.42144330
O       3.77234798     0.84978802     0.73651599    -0.19875689    -1.02435333     1.24052045
O       0.22894600     4.97762098     0.65251698    -0.89351087    -2.68095865     1.18783082
O       0.11547801     0.98347899     0.76350599    -0.51965871     1.25269129     0.10052914
O       5.86515822     4.89850321     4.06933881     0.02114682     0.25130254    -0.37965720
O       5.77227222     1.13396721     3.89300082    -0.62817730    -1.96307116     1.70072547
O       1.82292122     4.56039620     4.12949484    -0.48661848     1.53758839    -0.15234255
O       1.95821523     0.85512123     4.13086684    -0.16788101    -0.26761183    -1.64899408
O       3.76802121     2.90412925     3.22241682    -0.76749283    -0.16251615    -0.12518757
O       3.80832023    -1.26815375     3.26544682    -0.23682157     1.26188016    -0.34095592
O      -0.14489677     2.87983721     3.04953980     2.48033334     0.09644571     0.24729856
O       0.01590220    -0.79261079     3.22656282     0.17570797    -0.12139160     0.60956816
O       5.72875998     6.52516100     1.60811098    -0.46773912     0.48253891     0.34417442
O       5.60359501     2.94159399     1.62361799     1.02392344    -0.16234594    -1.27558466
O       1.86560900     6.40594398     1.72425797     1.66285722     0.89758736     0.07442447
O       1.82009801     2.74438699     1.64924303     0.15373171     0.25244180    -0.39099423
