# total energy = -19943.71821233 eV

CRYSTAL
PRIMVEC
        5.72731008     0.00000000     0.00000000
        2.07008881     5.73331963     0.00000000
        0.00000000     0.00000000    10.41616545
PRIMCOORD
24 1
Ti      3.30260724     3.39755981     3.86432311     0.65073411    -2.67145842     0.96513232
Ti      4.49479186     2.33575966     6.55184246    -0.65073411     2.67145842    -0.96513232
Ti      5.78279200     2.33576161     1.34371809    -1.68689832    -0.71202615     0.50277710
Ti      2.01460713     3.39755803     9.07244759     1.68689832     0.71202615    -0.50277710
Ti      2.26756297     0.53090015     1.34375985     0.65073411    -2.67145842    -0.96513232
Ti      5.52983615     5.20241944     9.07240583    -0.65073411     2.67145842     0.96513232
Ti      0.97956275     0.53089804     6.55180070     1.68689832     0.71202615     0.50277710
Ti      6.81783638     5.20242161     3.86436487    -1.68689832    -0.71202615    -0.50277710
O       2.54164331     2.01879924     5.31528950     1.49707088     1.96492467    -0.89569040
O       5.25575579     3.71452023     5.10087606    -1.49707088    -1.96492467     0.89569040
O       1.77988058     2.01882237     0.10724029    -0.04369823    -0.59556721     1.12953052
O       6.01751859     3.71449715    10.30892498     0.04369823     0.59556721    -1.12953052
O       4.22071150     0.84786046     0.10720649    -1.49707088    -1.96492467    -0.89569040
O       3.57668760     4.88545902    10.30895879     1.49707088     1.96492467     0.89569040
O       4.98247429     0.84783732     5.31532330     0.04369823     0.59556721     1.12953052
O       2.81492475     4.88548216     5.10084226    -0.04369823    -0.59556721    -1.12953052
O       1.46723175     3.48732991     2.81366615     0.45916886     1.70243808     1.60491610
O       6.33016735     2.24598956     7.60249941    -0.45916886    -1.70243808    -1.60491610
O       3.88267709     2.24593616     2.39444974     1.13180363     1.25178806     0.43921015
O       3.91472201     3.48738332     8.02171565    -1.13180363    -1.25178806    -0.43921015
O       0.43218746     0.62067013     2.39441646     0.45916886     1.70243808    -1.60491610
O       7.36521164     5.11264934     8.02174893    -0.45916886    -1.70243808     1.60491610
O       2.87967773     0.62072354     7.60253258    -1.13180363    -1.25178806     0.43921015
O       4.91772137     5.11259593     2.81363293     1.13180363     1.25178806    -0.43921015
