# total energy = -4977.90389307 eV

CRYSTAL
PRIMVEC
        4.18320612     0.00000000     0.00000000
        0.00000000     2.18481857     0.00000000
        0.00000000    -0.00011524     5.82618334
PRIMCOORD
6 1
Ti      2.09160286     1.09235186     2.91309167     0.00000000     0.00000000     0.00000000
Ti      0.00000000     0.00000000     0.00000000     0.00000000     0.00000000     0.00000000
O       2.09160286     0.42576659     1.13543734     0.00000000    -0.85140802    -0.25305732
O       2.09160286     1.75893719     4.69074606     0.00000000     0.85140802     0.25305732
O       0.00000000     0.66654001     4.04853019    -0.00000000     0.85095164    -0.25088988
O       0.00000000     1.51816377     1.77765315    -0.00000000    -0.85095164     0.25088988
