# total energy = -19071.84187676 eV

CRYSTAL
PRIMVEC
        5.17600016     0.00000000     0.00000000
        0.00000000     5.50899976     0.00000000
        0.00000000     0.00000000     9.26300011
PRIMCOORD
22 1
Ti      1.93973202     3.59925098     3.47704802     1.07880726     1.42568520    -1.33363762
Ti      3.78845502     2.26990502     6.06127099     0.40190188     0.00459739    -1.03720551
Ti      4.27462202     2.51328602     1.63624299     0.14304106    -0.91665081     1.35917022
Ti      1.32548799     2.45173699     7.78930602    -0.46417222    -0.24222578     1.40544701
Ti      1.52384601     0.70395899     1.15446500     1.31987913     0.51124914     0.43474799
Ti      3.07782199     5.39120300     7.94756098     0.33765642     0.58910552    -0.24485859
Ti      0.66744200     5.32294803     6.39947998    -3.83450817    -0.59050934    -0.84937864
Ti      4.51502602     5.03806699     3.50517501    -2.18325692     1.93945505     1.67550062
O       3.57781798     3.23105199     4.30437400    -0.19179588     0.07290803     0.65450515
O       0.33315502     2.08241302     0.40947302     0.30823399     0.60141416    -2.31088678
O       0.14469500     3.42542001     6.68032799    -0.39267393    -0.05984810    -1.47824603
O       2.68349498     1.52603500     9.03097398    -0.29034476    -0.93719933     0.61547682
O       1.35810600     4.81143101     8.21572197    -1.47729318     0.23983079     2.42813916
O       4.31801698     0.54745302     5.08591599    -0.99158538     0.59144702     0.34593100
O       1.00891500     4.95909501     4.56514001     2.28652968    -2.23682741    -0.56964740
O       0.27304303     3.83559900     2.52295901     0.11551277    -2.12248219    -2.26430814
O       4.56269801     1.19875501     7.34583300     1.81945802    -1.98181759     1.20735990
O       2.50416798     2.05642100     2.07724100    -0.43820870     0.85352506     1.45843978
O       2.84368001     3.43464902     7.19712700     0.72615694     0.22840506    -0.62065991
O       5.13712701     0.97482202     2.50466398    -0.19085563     0.71271083    -1.00962605
O       2.05421999     0.93768298     6.59819498     1.99888998     2.42137381    -0.55756707
O       2.75635100     4.95272398     2.22894099    -0.08137236    -1.10414549     0.69130356
