# total energy = -19950.67137316 eV

CRYSTAL
PRIMVEC
        5.30695705     0.00000000     0.00000000
        1.91815569     5.31252553     0.00000000
        0.00000000     0.00000000     9.65167624
PRIMCOORD
24 1
Ti      3.06021404     3.14819762     3.58070306     1.72466450    -2.88240543     1.12247258
Ti      4.16489888     2.16432776     6.07097329    -1.72466450     2.88240543    -1.12247258
Ti      5.35836690     2.16432957     1.24509658    -3.63953877    -0.15095929     1.13929506
Ti      1.86674606     3.14819598     8.40657988     3.63953877     0.15095929    -1.13929506
Ti      2.10113633     0.49193500     1.24513527     1.72466450    -2.88240543    -1.12247258
Ti      5.12397661     4.82059049     8.40654118    -1.72466450     2.88240543     1.12247258
Ti      0.90766824     0.49193304     6.07093459     3.63953877     0.15095929     1.13929506
Ti      6.31744472     4.82059250     3.58074176    -3.63953877    -0.15095929    -1.13929506
O       2.35510069     1.87063049     4.92517651     0.59264078     1.32563866    -0.98469611
O       4.87001224     3.44189490     4.72649984    -0.59264078    -1.32563866     0.98469611
O       1.64924714     1.87065192     0.09936944     0.55886907    -0.68250807     0.47303945
O       5.57586585     3.44187351     9.55230664    -0.55886907     0.68250807    -0.47303945
O       3.91093451     0.78563217     0.09933812    -0.59264078    -1.32563866    -0.98469611
O       3.31417841     4.52689322     9.55233796     0.59264078     1.32563866     0.98469611
O       4.61678811     0.78561073     4.92520783    -0.55886907     0.68250807     0.47303945
O       2.60832477     4.52691466     4.72646852     0.55886907    -0.68250807    -0.47303945
O       1.35954501     3.23137909     2.60715854     0.21772907     0.34182238     0.23877330
O       5.86556791     2.08114629     7.04451780    -0.21772907    -0.34182238    -0.23877330
O       3.59770996     2.08109681     2.21871031     1.51655008    -0.07878737    -0.87500381
O       3.62740296     3.23142858     7.43296588    -1.51655008     0.07878737     0.87500381
O       0.40046728     0.57511636     2.21867947     0.21772907     0.34182238    -0.23877330
O       6.82464564     4.73740902     7.43299672    -0.21772907    -0.34182238     0.23877330
O       2.66832523     0.57516585     7.04454853    -1.51655008     0.07878737    -0.87500381
O       4.55678769     4.73735954     2.60712776     1.51655008    -0.07878737     0.87500381
