# total energy = -19960.60502392 eV

CRYSTAL
PRIMVEC
        7.60600008     0.00000000     0.00000000
        0.00000000     7.60600008     0.00000000
       -1.89786986    -1.89786986     4.85670466
PRIMCOORD
24 1
Ti      3.84014098     6.80316602     1.11334099     1.21592502    -2.34274816     0.01690012
Ti      3.82943202     2.76743001     1.13739400    -1.41182772     1.75285332     1.38610922
Ti     -0.01303501     6.60816399     1.23608402    -1.38504839     0.49757755    -1.31894916
Ti     -0.14285500     2.80415697     1.36247499     1.12056662    -0.06588634    -0.78352598
Ti      5.64350021     2.78727521     3.75373380    -0.19284361     0.26600643    -0.25927657
Ti      5.67816524    -0.92454378     3.62386682     0.49443078    -0.41251206     0.44637864
Ti      1.99437222     2.82431424     3.69831280    -0.25622672     0.32073290    -0.68267391
Ti      2.04015621    -0.93975080     3.52627183    -0.60075853    -0.37861745    -0.24391859
O       4.00509998     4.78777398     0.79708302    -0.85537780    -0.22707966    -0.00030288
O       4.00328299     0.94917401     0.63571000    -0.49175297     0.29716821     0.56210095
O       7.26795801     4.66130199     0.81067198     1.01652612     1.76951896     0.56257095
O      -0.06366600     1.04019398     0.69237398     0.09965625    -1.99472865     1.54771032
O       5.43625821     4.76005520     4.00778280     0.85395649    -0.17712336     0.83738238
O       5.76046622     0.92942724     4.19478282     0.11592826     0.82571189    -1.26082164
O       2.17684825     4.75716822     3.95878580    -0.97048870     0.70172990     0.37948957
O       1.79792421     0.90521325     4.05025584    -0.17780702     0.09003878     0.01719220
O       3.75702422     2.64303520     3.21931679     0.55213792    -0.18608777     0.18424789
O       3.83961524    -0.80447478     3.11505480    -0.76777900     0.23211157    -0.03012254
O      -0.07784679     2.93089524     3.23525683     0.24173058    -0.05145216     1.21111165
O      -0.10861580    -1.01194576     3.08251881     2.22183813    -0.42133017     1.52277086
O       5.75074899     6.88563400     1.65602999    -1.41496164    -0.19528101    -1.01085709
O       5.58803598     2.86250400     1.76907998     0.36877938    -0.60506873    -0.87164080
O       1.92194097     6.73121998     1.61368401     0.06503248    -0.08061748    -1.01529790
O       1.89398898     2.73374502     1.75650302     0.15836382     0.38508352    -1.19657720
