# total energy = -19959.71545617 eV

CRYSTAL
PRIMVEC
        4.99616257     0.00000000     0.00000000
        0.26573271     5.31078380     0.00000000
        0.00000000     0.00000000     8.94482850
PRIMCOORD
24 1
Ti      1.96834152     3.14716543     3.31846758     0.38495676     0.08555015    -0.08994931
Ti      3.29355355     2.16361817     5.62636103    -0.38495676    -0.08555015     0.08994931
Ti      4.41712722     2.16361998     1.15391098    -0.47413294    -0.50509006     0.59141462
Ti      0.84476791     3.14716382     7.79091773     0.47413294     0.50509006    -0.59141462
Ti      1.83547527     0.49177373     1.15394683     0.38544425     0.08308754     0.08932864
Ti      3.42641980     4.81901002     7.79088188    -0.38544425    -0.08308754    -0.08932864
Ti      0.71190165     0.49177176     5.62632513     0.47448261     0.49951565     0.59218827
Ti      4.54999347     4.81901199     3.31850347    -0.47448261    -0.49951565    -0.59218827
O       1.67488592     1.87001718     4.56447752    -0.61635253    -0.46550611    -0.19232039
O       3.58700915     3.44076642     4.38035109     0.61635253     0.46550611     0.19232039
O       1.01036354     1.87003861     0.09209202     0.69598323    -0.69449970     0.03914429
O       4.25153158     3.44074504     8.85273633    -0.69598323     0.69449970    -0.03914429
O       3.45414289     0.78537457     0.09206301     0.61474020     0.46426093    -0.19200543
O       1.80775218     4.52540903     8.85276534    -0.61474020    -0.46426093     0.19200543
O       4.11866533     0.78535319     4.56450658    -0.69733820     0.69543198     0.03882547
O       1.14322969     4.52543051     4.38032203     0.69733820    -0.69543198    -0.03882547
O       0.34315583     3.23031964     2.41622137    -0.37841253    -0.01195512    -0.37154434
O       4.91873929     2.08046396     6.52860728     0.37841253     0.01195512     0.37154434
O       2.78370979     2.08041448     2.05622137    -0.04443716    -0.32044930    -0.09474673
O       2.47818534     3.23036912     6.88860708     0.04443716     0.32044930     0.09474673
O       0.21028958     0.57492779     2.05619283    -0.37971608    -0.01236418     0.36975460
O       5.05160554     4.73585581     6.88863563     0.37971608     0.01236418    -0.36975460
O       2.34531908     0.57497727     6.52863578     0.04289064     0.32163921    -0.09301201
O       2.91657604     4.73580633     2.41619278    -0.04289064    -0.32163921     0.09301201
