# total energy = -4986.28565736 eV

CRYSTAL
PRIMVEC
        3.50454759     0.00000000     0.00000000
        0.00000000     3.29466016     0.00000000
        0.00000000    -0.00006489     4.68573884
PRIMCOORD
6 1
Ti      1.75227365     1.64729774     2.34286952     0.00000000     0.00000000     0.00000000
Ti      0.00000000     0.00000000     0.00000000     0.00000000     0.00000000     0.00000000
O       1.75227365     0.64206813     0.91318154     0.00000000    -1.72070474    -1.42906672
O       1.75227365     2.65252734     3.77255756     0.00000000     1.72070474     1.42906672
O       0.00000000     1.00520369     3.25605197     0.00000000     1.72080836    -1.42776471
O       0.00000000     2.28939178     1.42968707     0.00000000    -1.72080836     1.42776471
