# total energy = -19073.40138460 eV

CRYSTAL
PRIMVEC
        5.17600016     0.00000000     0.00000000
        0.00000000     5.50899976     0.00000000
        0.00000000     0.00000000     9.26300011
PRIMCOORD
22 1
Ti      1.73846199     3.38831299     3.44974502     1.91615365     1.24416217    -1.56903094
Ti      3.79732700     2.26976500     5.83720100    -2.65182264     1.02252862    -0.32257664
Ti      4.24214001     2.43674900     1.25952801     0.73799867    -1.45259206    -0.49260812
Ti      0.78724302     3.10885999     8.05081299     0.57274969     1.58739377    -0.28845423
Ti      1.75341300     0.57623698     1.13253197     0.71690482    -0.74577600     0.08197785
Ti      3.33279399     4.96039499     7.90145101    -0.62006649     0.10464137     0.52208686
Ti      0.83321699     0.08823099     6.13952901     0.09997893     0.29352650    -0.91629831
Ti      4.43805698     5.03045700     3.44668600    -0.52033928     1.29582722    -0.67512977
O       3.44358502     3.63360898     4.34933200     0.37946360    -1.98134554     1.26706273
O       0.85319100     2.03043998     0.26607302    -0.85385622    -0.26688112    -0.38310428
O       4.19292398     3.66727999     9.00497503     1.26707765    -0.59094643     0.17444710
O       3.30975202     0.85105900     0.21165899     1.80996294     0.36402309    -1.58071892
O       1.80431403     4.62772601     8.86270800    -2.44975417    -0.28738825     1.04147432
O       4.23427802     0.66870901     4.96520801     0.42730491     0.30913233    -0.08522927
O       1.06756901     4.89872102     4.36053299    -0.68369438    -0.50235441     1.31396867
O       0.10534199     3.54581498     2.53039400    -0.43601118    -0.38560237    -0.99094646
O       5.15447201     1.70041801     6.98975698     0.41769643    -0.71934942     0.26828597
O       2.66022002     2.04769402     2.08067700    -1.01030251     1.29515539     2.07487485
O       2.32096898     3.58160800     6.65893500    -0.40440022    -0.66215598     1.26699486
O       5.13405699     0.93527502     2.37835498     0.17056705    -0.75955712    -0.75433932
O       2.44706399     0.71481401     6.77336302     0.44823369     1.45113682    -0.66664410
O       2.57154801     4.83806201     2.32498798     0.66615534    -0.61357908     0.71390717
