# total energy = -4984.96029992 eV

CRYSTAL
PRIMVEC
        2.82000340     0.00000000     0.00000000
        1.29638770     4.22406451     0.00000000
       -0.00000863    -0.00005791     4.47021729
PRIMCOORD
6 1
Ti      2.05819129     2.11200334     2.23510865     0.00000000     0.00000000     0.00000000
Ti      0.00000000     0.00000000     0.00000000     0.00000000     0.00000000     0.00000000
O       1.66264690     0.82319676     0.87117949    -4.96544559     2.25317192     2.64432145
O       2.45373573     3.40080992     3.59903775     4.96544559    -2.25317192    -2.64432145
O       0.39554085     1.28878314     3.10628913     4.96655734    -2.25571603     2.64726588
O       0.90083839     2.93522333     1.36392816    -4.96655734     2.25571603    -2.64726588
