# total energy = -4983.38823294 eV

CRYSTAL
PRIMVEC
        3.35620696     0.00000000     0.00000000
        0.00000000     3.15520365     0.00000000
        0.00000000    -0.00006214     4.48740069
PRIMCOORD
6 1
Ti      1.67810333     1.57757085     2.24370044     0.00000000     0.00000000     0.00000000
Ti      0.00000000     0.00000000     0.00000000     0.00000000     0.00000000     0.00000000
O       1.67810333     0.61489065     0.87452835     0.00000000    -2.92158777    -3.04721346
O       1.67810333     2.54025105     3.61287258     0.00000000     2.92158777     3.04721346
O       0.00000000     0.96265539     3.11822967    -0.00000000     2.92234805    -3.05096316
O       0.00000000     2.19248631     1.36917122    -0.00000000    -2.92234805     3.05096316
