# total energy = -19916.37928226 eV

CRYSTAL
PRIMVEC
        6.25748468     0.00000000     0.00000000
        0.00002202     3.58607636     0.00000000
        0.00000000     0.00000000     9.46705131
PRIMCOORD
24 1
Ti      2.26805036     2.12510564     3.51220864    -0.91710538     2.50473106    -3.34597293
Ti      3.98945649     1.46097101     5.95484306     0.91710538    -2.50473106     3.34597293
Ti      5.39668546     1.46097228     1.22127941    -0.91444018    -2.50481822     3.35057418
Ti      0.86082139     2.12510447     8.24577239     0.91444018     2.50481822    -3.35057418
Ti      2.26803945     0.33206751     1.22131736    -0.91698248     2.50474495     3.34765341
Ti      3.98946740     3.25400924     8.24573444     0.91698248    -2.50474495    -3.34765341
Ti      0.86081048     0.33206610     5.95480512     0.91471991     2.50482465     3.34888008
Ti      5.39669637     3.25401061     3.51224659    -0.91471991    -2.50482465    -3.34888008
O       1.98054123     1.26271851     4.83096397     4.26120681    -2.74571242     4.79840353
O       4.27696562     2.32335810     4.63608773    -4.26120681     2.74571242    -4.79840353
O       1.14825331     1.26273296     0.09746859    -4.26068307    -2.74660897     4.79870435
O       5.10925358     2.32334370     9.36958282     4.26068307     2.74660897    -4.79870435
O       4.27695471     0.53031992     0.09743788    -4.26114639     2.74557564     4.79783557
O       1.98055214     3.05575673     9.36961353     4.26114639    -2.74557564    -4.79783557
O       5.10924267     0.53030547     4.83099468     4.26069104     2.74671335     4.79914452
O       1.14826407     3.05577118     4.63605697    -4.26069104    -2.74671335    -4.79914452
O       0.22736227     2.18125495     2.55728683     3.27867197    -0.75591489     1.94304843
O       6.03014457     1.40482170     6.90976488    -3.27867197     0.75591489    -1.94304843
O       3.35611234     1.40478817     2.17626909     3.28014032     0.75642552    -1.94378865
O       2.90139451     2.18128848     7.29078241    -3.28014032    -0.75642552     1.94378865
O       0.22735136     0.38821672     2.17623888     3.27855344    -0.75621828    -1.94318418
O       6.03015548     3.19785993     7.29081263    -3.27855344     0.75621828     1.94318418
O       2.90138360     0.38825025     6.90979504    -3.28026605    -0.75610361    -1.94376834
O       3.35612325     3.19782640     2.55725661     3.28026605     0.75610361     1.94376834
