# total energy = -19517.53609142 eV

CRYSTAL
PRIMVEC
        7.60600008     0.00000000     0.00000000
        0.00000000     7.60600008     0.00000000
       -1.89786986    -1.89786986     4.85670466
PRIMCOORD
23 1
Ti      3.79263103     6.76622600     1.24497801    -0.32241748     0.31686184     0.67654517
Ti      3.71074799     2.97564898     1.16089101     0.99511654    -0.25690884     1.27681030
Ti     -0.11669300     6.55706499     1.19292502     0.47424992    -1.01591368     0.07599541
Ti      0.02002301     2.72277899     1.21500298    -0.64792775     0.99128096    -1.21012923
Ti      5.72782720     2.74653825     3.53296983    -1.28622466    -1.13625935     0.90161499
Ti      5.75914825    -1.15475377     3.66379483    -1.49577504     1.64055469     0.33726792
Ti      1.98473823     2.95242524     3.64658879     1.57526407    -0.13816368     0.53705454
Ti      1.83571921    -0.94069675     3.65685081     1.36565738     0.75999292    -0.50405262
O       4.27803902     4.69556701     0.67562398    -1.55844571     1.43437785     1.25125019
O       3.77929698     1.05249698     0.82002799    -0.67108131    -0.01223357     0.23279497
O      -0.25166501     4.73898902     0.76333400     0.80212201     1.34773627     0.61256581
O       0.17206098     0.89732898     0.80955102    -0.11809261    -0.99132622    -0.73296419
O       5.72710323     4.59806124     3.95161482     0.30779921     1.53496793     0.66013510
O       5.54651123     0.92131320     4.18992979     1.05354668    -0.30436088    -1.80151686
O       1.96922624     4.87131921     4.17095879    -0.58709543    -1.86377229    -0.53462973
O       1.90921823     0.96833822     4.09423380    -1.01514621     0.52713214    -1.14347156
O       3.87487120     2.98333322     3.26910682    -1.40122526    -0.46477232    -1.80715169
O       3.73922021    -0.96711376     3.23639980     0.59386026    -0.42928286    -0.06835409
O      -0.04245975    -1.23831276     3.27560982     0.09065327     0.78939041    -1.08394716
O       5.62479703    -0.58315301     1.64357501     1.84249949    -1.13944007     0.73033781
O       5.82108702     2.76516100     1.58503202    -0.69826200    -0.50694486     1.33651880
O       1.88999502     6.71300998     1.60593701    -0.71148107    -0.63181336     0.28800531
O       1.77511000     3.20397600     1.70091401     1.41240519    -0.45110330    -0.03067970
