# total energy = -4987.22456808 eV

CRYSTAL
PRIMVEC
        3.27832800     0.00000000     0.00000000
        0.00000000     5.13664849     0.00000000
        0.00000000    -0.00006666     5.13664849
PRIMCOORD
6 1
Ti      1.63916394     2.56829086     2.56832419     0.00000000     0.00000000     0.00000000
Ti      0.00000000     0.00000000     0.00000000     0.00000000     0.00000000     0.00000000
O       1.63916394     1.00104413     1.00105712     0.00000000    -0.73657274    -0.73657274
O       1.63916394     4.13553759     4.13559126     0.00000000     0.73657274     0.73657274
O       0.00000000     1.56721970     3.56938235     0.00000000     0.73674860    -0.73674860
O       0.00000000     3.56936201     1.56726602     0.00000000    -0.73674860     0.73674860
