# total energy = -19955.85978434 eV

CRYSTAL
PRIMVEC
        5.78778541     0.00000000     0.00000000
        0.00002880     5.57329148     0.00000000
        0.00000000     0.00000000     9.89030940
PRIMCOORD
24 1
Ti      2.09781093     3.30272732     3.66923434     0.05262150    -0.26916118     0.14436107
Ti      3.69000328     2.27056405     6.22107541    -0.05262150     0.26916118    -0.14436107
Ti      4.99160277     2.27056597     1.27588103     0.05421250     0.26900357    -0.14331926
Ti      0.79621150     3.30272569     8.61442888    -0.05421250    -0.26900357     0.14331926
Ti      2.09779659     0.51608169     1.27592070     0.05262150    -0.26916118    -0.14436107
Ti      3.69001768     5.05720985     8.61438921    -0.05262150     0.26916118     0.14436107
Ti      0.79619710     0.51607966     6.22103579    -0.05421250    -0.26900357    -0.14331926
Ti      4.99161712     5.05721194     3.66927401     0.05421250     0.26900357     0.14331926
O       1.83188078     1.96245061     5.04694931     0.81413215     0.66708865    -0.05568857
O       3.95593348     3.61084076     4.84336043    -0.81413215    -0.66708865     0.05568857
O       1.06206612     1.96247315     0.10182628    -0.81310602     0.66659525    -0.05640668
O       4.72574820     3.61081828     9.78848323     0.81310602    -0.66659525     0.05640668
O       3.95591908     0.82419497     0.10179422    -0.81413215    -0.66708865    -0.05568857
O       1.83189519     4.74909641     9.78851530     0.81413215     0.66708865     0.05568857
O       4.72573380     0.82417248     5.04698144     0.81310602    -0.66659525    -0.05640668
O       1.06208035     4.74911894     4.84332836    -0.81310602     0.66659525     0.05640668
O       0.21030125     3.38999183     2.67161938     0.03407124    -0.13689253     0.18484696
O       5.57751302     2.18329960     7.21869036    -0.03407124     0.13689253    -0.18484696
O       3.10419908     2.18324772     2.27356694     0.03429442     0.13718460    -0.18489658
O       2.68361513     3.39004371     7.61674269    -0.03429442    -0.13718460     0.18489658
O       0.21028685     0.60334603     2.27353532     0.03407124    -0.13689253    -0.18484696
O       5.57752737     4.96994539     7.61677425    -0.03407124     0.13689253     0.18484696
O       2.68360079     0.60339791     7.21872192    -0.03429442    -0.13718460    -0.18489658
O       3.10421348     4.96989346     2.67158782     0.03429442     0.13718460     0.18489658
