# total energy = -4987.58365116 eV

CRYSTAL
PRIMVEC
        3.52779156     0.00000000     0.00000000
        0.52620106     3.48832707     0.00000000
       -2.02702810    -1.74419089     4.51503536
PRIMCOORD
6 1
Ti      0.39452251     2.61637864     1.12875860     0.00077982    -0.00094077     0.00009179
Ti      1.63244238    -0.87224214     3.38627628    -0.00077982     0.00094077    -0.00009179
O       0.13158737     0.87207655     0.73546225     0.00051859     0.00219495     1.26546865
O       1.89537736     0.87205981     3.77957263    -0.00051859    -0.00219495    -1.26546865
O      -0.13156579    -0.87205798     2.99297993     0.00223969     0.00057027     1.26684805
O       2.15853047     2.61619434     1.52205494    -0.00223969    -0.00057027    -1.26684805
