# total energy = -19518.58212851 eV

CRYSTAL
PRIMVEC
        5.17600016     0.00000000     0.00000000
        0.00000000     5.50899976     0.00000000
        0.00000000     0.00000000     9.26300011
PRIMCOORD
23 1
Ti      1.89037799     3.21890499     3.41349003    -0.43918315     0.47696270     0.02882439
Ti      3.28878602     2.23538001     5.84561502     0.05279171     0.17021763    -0.16523509
Ti      4.46376198     2.25712798     1.23851300     1.15038809    -1.28976918     0.15890915
Ti      0.70295498     3.31688602     8.04129801     0.22380150    -0.77496678     0.90333763
Ti      1.87720899     0.52939501     1.24176998    -0.47760007     0.02245911    -0.96137285
Ti      3.32749698     5.01581498     8.03608598    -1.21072753     0.53723606     1.05240254
Ti      0.73430000     0.52581401     5.83503798     0.06193918    -0.17749103    -0.95036570
Ti      4.46065301     4.96559098     3.47987600     0.22346829    -0.08086020    -0.82222753
O       1.56784900     1.95636999     4.69576302     0.46244856    -0.52420596     0.65331910
O       3.49355200     3.55161502     4.44186902     0.11829007    -0.20184864     1.16931501
O       0.95395000     1.97102597     0.11419402    -0.99703458     0.78757264    -0.17977623
O       3.52265400     0.84734602     0.15218402     0.20995790    -0.73580115    -1.25694441
O       1.66393500     4.64265802     9.04502501     0.74570350     1.36341872     1.53826562
O       4.25253998     0.78549002     4.66949599    -0.33123843     1.02128986     1.22790148
O       0.92751601     4.65879300     4.51511101     0.10570246     0.74219317     0.70663300
O       0.13524601     3.33261502     2.57971502    -0.00069677     0.03030355    -1.12909472
O       5.03022802     2.23726002     6.76178700    -1.23022524    -1.17569212    -1.02639479
O       2.81476401     2.10852300     2.16606600    -0.75428944     0.27588461    -0.04156498
O       2.30987298     3.25211203     7.17993498     2.71587630     0.29104230    -1.48124033
O       0.15212602     0.61939298     2.06713298     0.04023007    -0.33032826     0.42433348
O       5.03632001     4.89601200     7.10131300    -0.68669074     0.17414808     0.56883904
O       2.48761299     0.62180798     6.73806600    -0.39644909    -0.19037843    -0.52497575
O       2.70488502     4.92717202     2.47901301     0.41353690    -0.41138746     0.10711168
