# total energy = -19958.14924957 eV

CRYSTAL
PRIMVEC
        7.60600008     0.00000000     0.00000000
        0.00000000     7.60600008     0.00000000
       -1.89786986    -1.89786986     4.85670466
PRIMCOORD
24 1
Ti      3.91355702     6.63496401     1.07449499    -1.44423803    -2.16075693     0.70783859
Ti      3.94930300     2.56351701     1.19173500    -2.37895239     2.14865320     0.80481755
Ti     -0.10913302     6.77056102     1.19525498     0.49473442    -0.50049678     0.15253461
Ti     -0.09493599     2.99697202     1.28332299     2.46558343     0.03891726    -0.17777231
Ti      5.52123524     2.94336022     3.69865883     0.61912984     1.05858013     0.18203597
Ti      5.80145020    -0.76621775     3.79593082    -0.72161508    -1.00752829    -2.14510096
Ti      1.71811121     2.63327823     3.73364279     0.62194700     2.54977372    -1.15773527
Ti      2.07541222    -0.96247277     3.55269783     0.26081357    -1.44061895    -2.59460658
O       3.87550902     4.61016199     0.63072298    -0.20811211     0.11113135     2.21032473
O       4.14810902     0.80627298     0.52981999    -0.71947541     1.67547517     2.56593748
O      -0.10493400     4.90394500     0.66353699     0.01048676    -0.45460515     3.10406443
O      -0.13477102     1.04934002     0.73866201     0.24070882     0.06973529     2.65809562
O       5.34556125     4.94769325     4.15862081     1.09010958    -0.80994382    -1.00477026
O       5.50802724     1.07651925     4.27093582     0.01211556    -0.75181064    -1.92068137
O       2.36957122     4.58053224     4.15317282    -1.60547351     0.41265527    -2.43446896
O       1.97019723     0.90038620     4.13069184     0.03711003    -1.91992546    -1.92986381
O       3.84498221     2.78415820     3.12515282    -2.73547943    -0.93707900    -0.59260916
O       3.82977620    -0.88404277     3.18057583    -0.27950087     0.74714203     0.05935342
O      -0.20298980     2.81194022     3.35628379     2.93098824     0.20372761    -0.66970809
O       0.00069423    -0.90846478     3.20297480     0.11504714     0.12853489     0.49128786
O       5.62929498     6.71135302     1.69776202     2.20312152    -0.17817366     0.49378363
O       5.70201198     2.94410901     1.71188401    -0.25064228    -0.10385332    -1.15761109
O       1.95483299     6.46853798     1.49798898    -0.38906924     1.02624747     0.54533427
O       1.89105401     2.70791101     1.32393602    -0.36933705     0.09421888     1.80951968
