# total energy = -4986.31226127 eV

CRYSTAL
PRIMVEC
        3.76043511     0.00000000     0.00000000
        0.00000000     3.17263589     0.00000000
        0.00000000    -0.00007167     4.98058979
PRIMCOORD
6 1
Ti      1.88021745     1.58628206     2.49029505     0.00000000     0.00000000     0.00000000
Ti      0.00000000     0.00000000     0.00000000     0.00000000     0.00000000     0.00000000
O       1.88021745     0.61828603     0.97064364     0.00000000    -1.29255549    -0.33817090
O       1.88021745     2.55427814     4.00994641     0.00000000     1.29255549     0.33817090
O       0.00000000     0.96796747     3.46093964     0.00000000     1.29240302    -0.33772712
O       0.00000000     2.20459665     1.51965046     0.00000000    -1.29240302     0.33772712
