# total energy = -4988.57663473 eV

CRYSTAL
PRIMVEC
        2.80714033     0.00000000     0.00000000
        0.43873966     4.37643108     0.00000000
       -0.00000292    -0.00005708     4.40388998
PRIMCOORD
6 1
Ti      1.62293859     2.18818700     2.20194499     0.00000000     0.00000000     0.00000000
Ti      0.00000000     0.00000000     0.00000000     0.00000000     0.00000000     0.00000000
O       1.48907349     0.85289087     0.85825329    -1.39420255     0.93663497     0.96103064
O       1.75680373     3.52348312     3.54563665     1.39420255    -0.93663497    -0.96103064
O       0.13386389     1.33527299     3.06019917     1.39428508    -0.93736131     0.96177112
O       0.30487304     3.04110091     1.34369076    -1.39428508     0.93736131    -0.96177112
