# total energy = -19960.58276010 eV

CRYSTAL
PRIMVEC
        5.93400000     0.00000000     0.00000000
        0.00000000     9.29699974     0.00000000
        0.00000000     0.00000000     4.64899994
PRIMCOORD
24 1
Ti      4.44423401     6.93622102     2.22255101    -0.35870399     0.69331108     0.70100280
Ti      4.45220602     2.42433201     2.40727203     0.27231026    -1.18653087    -2.12903387
Ti      1.48414200     6.90371599     2.21379202     0.38571575     1.21084708     1.07908366
Ti      1.45241100     2.25349301     2.42105900    -0.34659872    -0.22135355    -1.46037120
Ti      2.97808701     4.63671398     0.03972899    -0.92933484    -0.21909329     0.30688827
Ti      3.01620698     0.06835901     0.01983399    -1.10582082     0.20909247     0.51260797
Ti      5.91717402     4.66444599     4.53603198     1.03866487    -0.20578063     0.50074258
Ti      5.89262199     9.25880500     0.01608000     1.23199467     0.29603641     0.24745926
O       4.54152198     5.54015502     0.92494802    -0.42463610    -0.46514462    -0.38544939
O       4.49410500     0.94655099     1.01829203    -0.86139855    -0.29914128    -0.48425640
O       1.51076898     5.57575902     0.92733699    -0.14666658    -0.68960740    -0.70674921
O       1.48764198     0.80036397     0.96713498     0.10278451     1.05763216     0.84022474
O       4.42479702     8.44288898     3.83224502    -0.40955966    -0.67379974    -1.27577801
O       4.43863998     3.77759101     3.70525402     0.25568653     0.79001159     0.78944723
O       1.35280301     8.44191598     3.80040998     1.56369667    -0.57491174    -1.14976922
O       1.58563603     3.81326698     3.71183899    -0.82173979    -0.02491400     0.33562962
O       2.94510000     6.03847499     3.21193900     0.37917075     0.45450924    -0.08587051
O       2.97118198     1.44770799     3.11810000     0.26653814    -0.88932434     1.95138626
O       0.04108802     6.13863703     3.24224499    -0.41794403    -0.91781218     0.46169419
O       0.02941199     1.49622100     3.41418600    -0.51068221     0.73547976    -1.10194077
O       3.00687901     7.89733401     1.38564603    -0.07820296    -0.61078172     0.57261137
O       2.90127301     3.15589702     1.36782498     0.79737858     1.19538061    -0.25954525
O       5.89028800     7.75966300     1.31653299     0.11840192     0.13707019     0.95180680
O       0.00225599     3.23109199     1.43299702    -0.00105415     0.19882477    -0.21182067
