# total energy = -4987.05649717 eV

CRYSTAL
PRIMVEC
        3.59726049     0.00000000     0.00000000
        0.00000000     3.38182049     0.00000000
        0.00000000    -0.00006660     4.80970019
PRIMCOORD
6 1
Ti      1.79863009     1.69087704     2.40485020     0.00000000     0.00000000     0.00000000
Ti      0.00000000     0.00000000     0.00000000     0.00000000     0.00000000     0.00000000
O       1.79863009     0.65905406     0.93733978     0.00000000    -1.13711116    -0.65043458
O       1.79863009     2.72270002     3.87236067     0.00000000     1.13711116     0.65043458
O       0.00000000     1.03179638     3.34219091     0.00000000     1.13692733    -0.65033790
O       0.00000000     2.34995770     1.46750948     0.00000000    -1.13692733     0.65033790
