# total energy = -4980.38340215 eV

CRYSTAL
PRIMVEC
        4.43093454     0.00000000     0.00000000
        0.00000000     2.63340404     0.00000000
        0.00000000    -0.00010512     6.00377093
PRIMCOORD
6 1
Ti      2.21546727     1.31664929     3.00188519     0.00000000     0.00000000     0.00000000
Ti      0.00000000     0.00000000     0.00000000     0.00000000     0.00000000     0.00000000
O       2.21546727     0.51319111     1.17004643    -0.00000000    -0.20404488     2.21556335
O       2.21546727     2.12010747     4.83372395    -0.00000000     0.20404488    -2.21556335
O       0.00000000     0.80341660     4.17193295     0.00000000     0.20398960     2.21475140
O       0.00000000     1.82988199     1.83183743     0.00000000    -0.20398960    -2.21475140
