# total energy = -19074.50317634 eV

CRYSTAL
PRIMVEC
        7.60600008     0.00000000     0.00000000
        0.00000000     7.60600008     0.00000000
       -1.89786986    -1.89786986     4.85670466
PRIMCOORD
22 1
Ti      3.71084700     6.80978100     1.31103801     0.48616108    -0.87954952    -1.95634952
Ti      3.86331699     2.95768299     1.06509601     0.72680125     1.03900580     1.47113872
Ti     -0.03997400     6.55403302     1.08563602    -0.05590583    -0.55791417     1.00383258
Ti      0.02889398     2.67949297     1.16099102    -1.04056183     0.91979707     0.39328791
Ti      5.72800823     2.72723122     3.60704983     0.14112970     0.56761674    -0.42029479
Ti      6.11821422    -1.13253478     3.71913180    -0.60022786     0.29478249     0.21625145
Ti      1.94723422     3.03627724     3.54546879    -0.55548010    -0.49450071     1.05310856
Ti      1.47057125    -0.87607977     3.84180482     0.48954414     0.80556240    -0.63517250
O       3.60550098     4.80409402     0.64075200     0.52331996     1.72761150     0.86574938
O       4.23060601     1.14709800     0.81809199    -1.29552100    -1.72687617     0.50637073
O       0.20708500     4.60495001     0.66970498    -0.11860298     0.27852719     0.15698750
O       7.04981299     0.75238501     0.54408999     1.27071062     0.17459211     2.52599127
O       5.65701821     4.62765024     4.08417583     0.43512569     0.07688218    -1.12083119
O       5.56065423     0.69603525     4.11523780     0.94266550     1.45081954    -1.81999564
O       1.97467920     4.98019421     4.20666682    -0.07241618    -1.22435489    -0.13798139
O       1.76702624     1.07409223     4.00893080     0.02591184    -0.99055797    -0.66854055
O       3.81843022     2.98034924     3.15513283     0.32727199    -0.30463393     0.31423032
O       0.02148322     3.09197622     3.21111783    -0.12069303    -1.03898600    -0.56017648
O       5.78041001     6.33871302     1.92481599    -0.57975775     0.61109308    -0.92687018
O       5.78157600     3.20269698     1.58900302    -0.35729477    -1.21448571     0.23473332
O       1.89606997     6.59894699     1.93440500    -0.13795208     0.74509595    -0.03199636
O       1.93063398     2.69323899     1.60891702    -0.43422889    -0.25952751    -0.46347288
