# total energy = -4978.68388950 eV

CRYSTAL
PRIMVEC
        4.62451905     0.00000000     0.00000000
        0.00000000     2.74845567     0.00000000
        0.00000000    -0.00010972     6.26607160
PRIMCOORD
6 1
Ti      2.31225953     1.37417281     3.13303551     0.00000000     0.00000000     0.00000000
Ti      0.00000000     0.00000000     0.00000000     0.00000000     0.00000000     0.00000000
O       2.31225953     0.53561208     1.22116497     0.00000000     0.06054410     2.75019771
O       2.31225953     2.21273353     5.04490606     0.00000000    -0.06054410    -2.75019771
O       0.00000000     0.83851732     4.35420186     0.00000000    -0.05979874     2.74936776
O       0.00000000     1.90982829     1.91186917     0.00000000     0.05979874    -2.74936776
