# total energy = -19952.59402129 eV

CRYSTAL
PRIMVEC
        5.62270800     0.00000000     0.00000000
        0.59696454     5.95441184     0.00000000
        0.00000000     0.00000000    10.07604291
PRIMCOORD
24 1
Ti      2.39172191     3.52857898     3.73814014     0.15991085    -1.13482674     0.69646017
Ti      3.82795081     2.42583291     6.33790311    -0.15991085     1.13482674    -0.69646017
Ti      5.09242671     2.42583493     1.29984124    -0.20586111     0.04926081    -0.19537075
Ti      1.12724602     3.52857724     8.77620219     0.20586111    -0.04926081     0.19537075
Ti      2.09323975     0.55137311     1.29988166     0.15991085    -1.13482674    -0.69646017
Ti      4.12643297     5.40303901     8.77616177    -0.15991085     1.13482674     0.69646017
Ti      0.82876379     0.55137092     6.33786275     0.20586111    -0.04926081    -0.19537075
Ti      5.39090888     5.40304115     3.73818057    -0.20586111     0.04926081     0.19537075
O       1.98982401     2.09664965     5.14172770     1.16963177     1.25120236    -0.27074163
O       4.22984870     3.85776230     4.93431555    -1.16963177    -1.25120236     0.27074163
O       1.24196810     2.09667373     0.10373851    -0.74966248     0.47959062     0.37937773
O       4.97770468     3.85773827     9.97230451     0.74966248    -0.47959062    -0.37937773
O       3.93136654     0.88055620     0.10370584    -1.16963177    -1.25120236    -0.27074163
O       2.28830617     5.07385574     9.97233718     1.16963177     1.25120236     0.27074163
O       4.67922252     0.88053218     5.14176043     0.74966248    -0.47959062     0.37937773
O       1.54045014     5.07387977     4.93428289    -0.74966248     0.47959062    -0.37937773
O       0.56739364     3.62181095     2.72179063     0.23952560     0.30822936     0.54552427
O       5.65227902     2.33260099     7.35425262    -0.23952560    -0.30822936    -0.54552427
O       3.24950255     2.33254554     2.31626303     0.53168402     0.61214955     0.00401684
O       2.97017016     3.62186635     7.75978011    -0.53168402    -0.61214955    -0.00401684
O       0.26891147     0.64460486     2.31623082     0.23952560     0.30822936    -0.54552427
O       5.95076118     5.30980703     7.75981226    -0.23952560    -0.30822936     0.54552427
O       2.67168800     0.64466031     7.35428478    -0.53168402    -0.61214955     0.00401684
O       3.54798472     5.30975164     2.72175848     0.53168402     0.61214955    -0.00401684
