# total energy = -4982.02495601 eV

CRYSTAL
PRIMVEC
        4.38198221     0.00000000     0.00000000
        0.00000000     2.94253246     0.00000000
        0.00000000    -0.00009431     5.83835850
PRIMCOORD
6 1
Ti      2.19099110     1.47121902     2.91917914     0.00000000     0.00000000     0.00000000
Ti      0.00000000     0.00000000     0.00000000     0.00000000     0.00000000     0.00000000
O       2.19099110     0.57343785     1.13781006     0.00000000    -0.15225770     2.35183316
O       2.19099110     2.36900025     4.70054821     0.00000000     0.15225770    -2.35183316
O       0.00000000     0.89774377     4.05699031     0.00000000     0.15196382     2.35185964
O       0.00000000     2.04469427     1.78136791     0.00000000    -0.15196382    -2.35185964
