# total energy = -4985.22300486 eV

CRYSTAL
PRIMVEC
        3.08659771     0.00000000     0.00000000
        2.07143962     4.37016202     0.00000000
       -0.00001353    -0.00006499     4.96987913
PRIMCOORD
6 1
Ti      2.57901180     2.18504854     2.48493946     0.00000000     0.00000000     0.00000000
Ti      0.00000000     0.00000000     0.00000000     0.00000000     0.00000000     0.00000000
O       1.94698922     0.85166761     0.96855622    -2.71858188     1.50815542     1.50946412
O       3.21103432     3.51842949     4.00132270     2.71858188    -1.50815542    -1.50946412
O       0.63201692     1.33335471     3.45349670     2.71809157    -1.50878997     1.50996857
O       1.43940905     3.03674224     1.51638222    -2.71809157     1.50878997    -1.50996857
