# total energy = -19891.49773978 eV

CRYSTAL
PRIMVEC
        6.28853934     0.00000000     0.00000000
        0.00002105     3.22251101     0.00000000
        0.00000000     0.00000000     9.50098366
PRIMCOORD
24 1
Ti      2.27930563     1.90965710     3.52479717    -1.63272876     2.24250904    -4.26791045
Ti      4.00925491     1.31285405     5.97618658     1.63272876    -2.24250904     4.26791045
Ti      5.42346765     1.31285520     1.22565675    -1.62961644    -2.24199045     4.27267779
Ti      0.86509293     1.90965610     8.27532715     1.62961644     2.24199045    -4.27267779
Ti      2.27929515     0.29840164     1.22569485    -1.63301621     2.24158216     4.26834136
Ti      4.00926543     2.92410961     8.27528905     1.63301621    -2.24158216    -4.26834136
Ti      0.86508240     0.29840040     5.97614848     1.62943878     2.24244605     4.27129890
Ti      5.42347813     2.92411085     3.52483527    -1.62943878    -2.24244605    -4.27129890
O       1.99036989     1.13470096     4.84827924     7.31170408    -3.46055650     7.03981728
O       4.29819069     2.08781020     4.65270451    -7.31170408     3.46055650    -7.03981728
O       1.15395153     1.13471392     0.09781794    -7.30968885    -3.46180220     7.04109717
O       5.13460910     2.08779723     9.40316552     7.30968885     3.46180220    -7.04109717
O       4.29818016     0.47655469     0.09778713    -7.30990894     3.46125738     7.04050736
O       1.99038037     2.74595646     9.40319638     7.30990894    -3.46125738    -7.04050736
O       5.13459862     0.47654173     4.84831006     7.30831768     3.46276971     7.04253751
O       1.15396187     2.74596948     4.65267369    -7.30831768    -3.46276971    -7.04253751
O       0.22849007     1.96011390     2.56645271     5.39800558    -1.67659051     1.58014505
O       6.06007046     1.26239730     6.93453105    -5.39800558     1.67659051    -1.58014505
O       3.37276761     1.26236722     2.18406936     5.39869283     1.67691293    -1.58161033
O       2.91579292     1.96014399     7.31691425    -5.39869283    -1.67691293     1.58161033
O       0.22847960     0.34885835     2.18403903     5.39778344    -1.67535150    -1.58303523
O       6.06008099     2.87365281     7.31694458    -5.39778344     1.67535150     1.58303523
O       2.91578244     0.34888843     6.93456134    -5.39881522    -1.67598784    -1.58094518
O       3.37277814     2.87362273     2.56642237     5.39881522     1.67598784     1.58094518
