# total energy = -4984.96913873 eV

CRYSTAL
PRIMVEC
        4.06527504     0.00000000     0.00000000
        0.00000000     3.06688155     0.00000000
        0.00000000    -0.00008108     5.37695584
PRIMCOORD
6 1
Ti      2.03263747     1.53340007     2.68847797     0.00000000     0.00000000     0.00000000
Ti      0.00000000     0.00000000     0.00000000     0.00000000     0.00000000     0.00000000
O       2.03263747     0.59767418     1.04788952     0.00000000    -0.63958477     1.15605171
O       2.03263747     2.46912596     4.32906642     0.00000000     0.63958477    -1.15605171
O       0.00000000     0.93569365     3.73636860    -0.00000000     0.64056719     1.15402646
O       0.00000000     2.13110649     1.64058734    -0.00000000    -0.64056719    -1.15402646
