# total energy = -4977.86741252 eV

CRYSTAL
PRIMVEC
        4.47247037     0.00000000     0.00000000
        0.00000000     2.33589698     0.00000000
        0.00000000    -0.00012321     6.22905772
PRIMCOORD
6 1
Ti      2.23623497     1.16788683     3.11452886     0.00000000     0.00000000     0.00000000
Ti      0.00000000     0.00000000     0.00000000     0.00000000     0.00000000     0.00000000
O       2.23623497     0.45520790     1.21395162     0.00000000    -0.31681299     1.46187632
O       2.23623497     1.88056582     5.01510615     0.00000000     0.31681299    -1.46187632
O       0.00000000     0.71263054     4.32848175     0.00000000     0.31683665     1.45801915
O       0.00000000     1.62314318     1.90057598     0.00000000    -0.31683665    -1.45801915
