# total energy = -19961.02880128 eV

CRYSTAL
PRIMVEC
        5.93400000     0.00000000     0.00000000
        0.00000000     9.29699974     0.00000000
        0.00000000     0.00000000     4.64899994
PRIMCOORD
24 1
Ti      4.43447397     6.94299899     2.36633001     0.98625857     0.40289253    -0.10222273
Ti      4.48283802     2.33509198     2.35813099     0.05557776    -0.04081911    -0.57731598
Ti      1.46623999     6.96754900     2.29216798    -0.85654020    -0.05453415    -0.25432308
Ti      1.54755500     2.29164701     2.32953700    -0.39735977     0.60608354     0.08829969
Ti      2.98700100     4.63074000     4.57630200    -1.99859328     0.29908677     0.27868018
Ti      2.96564499     9.29189398     0.02154900     0.05712968    -0.65506796     0.04827994
Ti      5.85859198     4.65167001     0.06903001     1.98489958     0.35085672    -0.18179712
Ti      5.92832997     0.03662399     4.60810597    -0.01406471    -0.59849827     0.21112364
O       4.51773298     5.57978500     0.90692900    -1.09003476    -0.04320843    -0.00050214
O       4.50218501     0.98526501     0.88228500    -0.34437908    -0.72442710    -0.34833036
O       1.44505400     5.56955399     0.89666799     0.56366753    -0.24276494    -0.16919408
O       1.50323000     0.95219599     0.78502101    -0.33873114    -0.36859220     0.56266171
O       4.45636202     8.36623999     3.77203402     0.10335041     0.59870833     0.14696817
O       4.43159499     3.80637498     3.72868202    -0.07204928    -0.85814919    -0.20950231
O       1.46866801     8.29103400     3.67108102     0.21300955     1.41408207     1.47896131
O       1.49969298     3.74394201     3.75033399     0.35274520     0.05517435     0.02015900
O       3.02593098     6.08186599     3.29257800    -0.54021803    -0.28656781    -0.23795234
O       2.89252301     1.43678598     3.25779899     0.88933129    -0.64763593     0.09589087
O       0.00384199     6.00802100     3.13959502    -0.09324623    -0.00776216     0.60944655
O       0.05217402     1.46136399     3.19541698    -0.96712236    -0.91060537     0.62758826
O       2.99397799     7.90320598     1.40099100    -0.17381204    -0.03237714    -0.00251377
O       2.93020102     3.11022600     1.45114102     0.89342088     1.57360159    -1.02982130
O       5.90149201     7.92489499     1.52418003     0.43432531     0.39826300    -1.05056908
O       5.83223001     3.27639401     1.43555702     0.35243512    -0.22773915    -0.00401452
