# total energy = -19519.09008405 eV

CRYSTAL
PRIMVEC
        7.60600008     0.00000000     0.00000000
        0.00000000     7.60600008     0.00000000
       -1.89786986    -1.89786986     4.85670466
PRIMCOORD
23 1
Ti      3.76811202     6.61448898     1.27576502    -0.43208973     0.03404528    -0.92477241
Ti      3.74466301     2.78726400     1.17511402     0.56538862     0.45710889     1.35375548
Ti     -0.08897301     6.66505800     1.10644899     0.55472111     0.16488619     0.06350627
Ti      0.00401000     2.81805200     1.17170998    -0.29057745    -0.11377676     0.78909654
Ti      5.68638622     2.80840023     3.73764480    -0.48850361     0.81676650    -1.12522855
Ti      5.73922425    -0.91738380     3.59310982    -0.65573542    -0.53661154     0.56478159
Ti      2.09782325     2.85460820     3.71969183     0.41941007     0.85283472    -0.31451648
Ti      1.82702023    -0.95275977     3.58457282     0.38750756    -0.63747415    -0.01459564
O       3.84363699     4.74100598     0.85197902     0.08558691    -0.15563433    -0.13873961
O       3.54524098     0.96247002     0.77162499     0.31069402     0.11934988    -0.27576737
O      -0.19574002     4.69557400     0.80457099     0.32001402     1.46782020     0.46296329
O       0.12859801     0.93762102     0.75062999    -0.14003776    -0.18817860    -0.01942829
O       5.80716421     4.73870020     3.99843981     0.22345106     0.01511475     0.28697764
O       5.69574922     0.96092921     4.15397881     0.38138113    -0.59661545    -1.59963428
O       1.89109920     4.68514323     4.08496182    -0.43540928     1.34664561    -0.11982579
O       2.11868823     0.97853922     4.02593580    -0.89201166    -1.14106321     0.31329238
O       3.91669123     3.01715823     3.27178583    -1.09228679    -0.64978434    -0.92234581
O       3.79107821    -1.03367579     3.16873581    -0.39138607     0.07264140     0.73032495
O      -0.08545477    -0.91406178     3.13105283     1.58264288     0.05861397     0.45090250
O       5.67905701     6.95324402     1.62791702    -0.29898213    -0.53575125    -0.57332999
O       5.80346002     2.74297900     1.71583099     0.04437263    -0.26349961     0.18059204
O       1.82865798     6.56902800     1.57738901     0.12305767    -0.03460346     0.72192901
O       1.85263299     3.03459800     1.70725101     0.11879247    -0.55283495     0.11006280
