# total energy = -19075.71579996 eV

CRYSTAL
PRIMVEC
        7.60600008     0.00000000     0.00000000
        0.00000000     7.60600008     0.00000000
       -1.89786986    -1.89786986     4.85670466
PRIMCOORD
22 1
Ti      3.86808699     6.52838898     1.27041699     0.35551068    -0.34751995    -0.16173453
Ti      3.84418400     2.77101503     1.18118400    -0.18669018     0.49145164    -0.16029317
Ti      0.09682002     6.73552499     1.07628900    -0.41615943    -1.43396210     1.48575956
Ti      0.01306999     2.89843599     1.03355302    -0.43467703     1.15445377     0.83036584
Ti      5.69308222     3.00647620     3.54593780     0.48449217    -0.43965058     0.23056659
Ti      6.07652823    -0.77647077     3.68472983    -0.78399778    -0.91785512    -1.47205095
Ti      1.88974424     2.81617221     3.62281683    -0.63052138    -1.20764349    -0.35373250
Ti      1.32084922    -1.14292576     3.89539180     1.28111587     1.42656812    -1.53653630
O       3.66052700     4.69140398     0.87456600     0.19998176     0.39511494    -0.12740464
O       4.00838701     0.83018899     0.75554499    -0.46207729     0.62698996     1.79913679
O       0.11838002     4.79608899     0.66815502     0.24949737     0.15281357    -0.15183064
O       0.09324299     0.98711899     0.71663702    -0.29724638     0.90686596     1.03639330
O       5.59568323     4.88593922     4.07700479     0.01547316     0.02910258    -1.82079500
O       5.41710522     1.03225722     3.85255183     1.61059850    -1.36339095     0.99964605
O       2.03670920     4.66369922     4.20742381    -0.71893110     0.06282082    -0.63968402
O       1.84259725     0.89678621     4.07704681    -0.45800826    -0.54011338     0.30759070
O       3.79056025     2.71212321     3.19204379    -0.61068068     0.85098841    -0.60499520
O      -0.01264379     2.84849721     3.22555982    -0.00644139     0.24010641    -0.31763806
O       5.81203602     6.46242900     1.75836202    -0.31379889     0.73019203     0.25869061
O       5.75228302     3.15835901     1.55963702    -0.78938836    -0.91306618     0.15669774
O       1.82665600     6.57994799     2.07492702     0.48408465     0.10868109    -0.49311566
O       1.80750100     2.80604201     1.54906501     1.42786370    -0.01294731     0.73496374
