# total energy = -19518.99839158 eV

CRYSTAL
PRIMVEC
        7.60600008     0.00000000     0.00000000
        0.00000000     7.60600008     0.00000000
       -1.89786986    -1.89786986     4.85670466
PRIMCOORD
23 1
Ti      3.84693202     6.74805998     1.12906200    -0.17756893     0.24200106     0.90261412
Ti      3.70358002     2.90391699     1.39591497     0.14787294    -0.56405705     0.19298348
Ti      0.00215301     6.66146298     1.12472799     0.34683526    -0.51443371    -0.37835134
Ti     -0.07435200     2.76395501     1.13086501     0.52795206     0.37160476     0.81134327
Ti      5.74862022     2.80592924     3.71899479    -1.23581148     0.41295172    -0.79674248
Ti      5.75202224    -0.97031475     3.52630083    -1.86392296    -0.20539882     0.72212416
Ti      1.91231524     2.80796821     3.78503479     0.99074463     0.31931776    -0.98639098
Ti      1.81004523    -0.88787179     3.58646981     1.63994842    -0.44632876     0.38106514
O       3.85664602     4.75611002     0.85826703    -0.52453686    -0.10876979     0.34110761
O       3.85060202     0.98035499     0.76109098    -0.46303528     0.50438095     0.23971355
O       0.01784402     4.74662002     0.79502701     0.23771015     0.60968386     0.12268486
O      -0.01126698     0.90254800     0.68611498     0.23279959    -0.44447140     0.04307499
O       5.79138425     4.67084422     3.93354479     0.17028654     0.71312864     0.54390319
O       5.64002124     0.95524421     4.15894784     0.77986344    -0.87480686    -2.47979058
O       2.09781721     4.75360522     4.05532980    -1.11695113     0.16717062    -0.05271818
O       1.77817320     0.97569024     4.13724580    -0.47830661    -0.50658567    -0.62157419
O       3.79241523     2.76580623     3.35087883     0.06331652     0.03370023    -1.08326633
O       3.88125022    -1.00155976     3.17329779    -0.38018274     0.27884344    -0.11565109
O       0.00421421    -1.17503978     3.16665979     0.26219297     0.64426958    -0.10113309
O       5.71767102     6.81637899     1.54558699     0.84252151    -0.36600593     0.33161304
O       5.77992999     2.81757601     1.61278599    -0.85283858    -0.05856564     1.25636823
O       1.89569500     6.79313398     1.64044101     0.05737804    -0.10078317    -0.21150211
O       1.75838901     2.84706700     1.66720002     0.79373301    -0.10684609     0.93852474
