# total energy = -19074.53575654 eV

CRYSTAL
PRIMVEC
        5.17600016     0.00000000     0.00000000
        0.00000000     5.50899976     0.00000000
        0.00000000     0.00000000     9.26300011
PRIMCOORD
22 1
Ti      1.82181101     3.35904700     3.30248203     0.05588552     1.39608639     0.10401505
Ti      3.58612098     2.33637598     5.94976398    -0.93619969    -0.44700702     0.09805703
Ti      4.35271403     2.24364000     1.26303798     1.01579824    -0.59874253    -1.36486522
Ti      0.67521901     3.20948801     8.12376399     1.59901413     0.65289795     0.18405634
Ti      1.86441898     0.56272698     1.25930998    -0.68942408    -0.15373840    -1.74169524
Ti      3.25030102     5.00381102     7.97779801    -0.15093667     0.42796157     0.38353726
Ti      0.55778399     0.13874699     6.01955902     1.89113707     2.13628747    -1.17286545
Ti      4.39344300     4.94272200     3.42309502     0.67998196     0.68435567     0.39794701
O       3.35643900     3.56537400     4.52534001     0.45797509    -0.43879234     0.75482475
O       0.95438101     2.06367300     0.26911097    -0.18856709    -0.82079825    -0.19489715
O       4.36477800     3.75859397     9.05297902    -0.73871626    -0.40976149     0.76886297
O       3.46534701     0.86333998     0.08317402     0.05525148     0.80449128     0.14534580
O       1.64515000     4.75220702     8.93797902    -0.95077965     1.00196184     1.06003460
O       4.56838302     0.93147399     4.77868197    -1.62929197    -0.45162138    -0.65834869
O       0.99011799     4.86050198     4.32872600    -0.10914337    -1.92771436     1.10118461
O       0.15649200     3.49055400     2.35956199    -0.48400984    -0.30978822     0.99296529
O       0.14830600     2.25008098     6.52683802     0.56976413    -0.54713430     1.23344169
O       2.75183500     2.01551200     2.34252301     0.00010284    -0.50375592    -0.18405532
O       2.58564000     3.33468400     7.34397702    -0.45274264    -0.93347406    -2.03525516
O       0.02908602     0.58031398     2.04147899     0.38018325     0.62218688     0.33436566
O       2.49106798     0.68667299     6.45649501    -0.52582910    -0.29155549     0.47706014
O       2.69936099     4.77509299     2.40694103     0.15054663     0.10765444    -0.68371623
