# total energy = -19957.45120978 eV

CRYSTAL
PRIMVEC
        7.60600008     0.00000000     0.00000000
        0.00000000     7.60600008     0.00000000
       -1.89786986    -1.89786986     4.85670466
PRIMCOORD
24 1
Ti      3.98526499     6.60472502     1.21183601     0.83326939     0.59605932    -1.73909919
Ti      3.73619501     2.72719502     1.19445698     1.73544566    -0.94801622    -0.90281056
Ti      0.13929199     6.74068299     1.24788198    -1.25076168    -0.45622751    -1.05464403
Ti     -0.03008500     2.88026399     1.34768698    -2.62940853     0.83520852    -0.90350167
Ti      5.60123922     2.90631120     3.63940479     1.79894061     0.47043261     2.44090880
Ti      5.62164424    -0.77023580     3.66575480     1.72182652    -0.95605170     0.21091230
Ti      1.97122124     2.92179620     3.60817079    -0.27126897    -2.92165282     1.42850159
Ti      1.96717822    -1.08656378     3.46047282    -1.33967174     2.73217967     1.49196749
O       3.87960501     4.49149102     0.83351799    -0.81368940     3.47935384    -0.58336193
O       4.19457200     0.82540798     0.75562199    -1.21436384    -0.53824573    -1.36097488
O      -0.32139998     4.78727200     0.98051898     1.82334348    -1.20404857    -0.35148819
O      -0.26353302     0.99605700     0.89620898     0.73039746     0.17844054    -1.77533042
O       5.80385621     4.68982825     4.21313379    -0.04003441     1.55043080    -1.30963688
O       5.42587824     0.95548123     3.99152081     1.05784942    -0.35863354     0.98536048
O       1.52940724     4.67741824     3.63062479     1.31514161     0.67859074     1.65757591
O       2.01405322     0.83350624     4.08519582    -0.69942208    -0.51562490     0.29281431
O       3.85635524     2.73994221     3.29810181    -4.71571914     0.80001653    -0.08220128
O       3.86086420    -0.87407778     2.95804680    -0.50159233    -1.13022446     3.41642016
O      -0.16701977     2.68112824     3.12607280     1.37165422    -0.16715853     2.63229382
O       0.02817324    -0.76133075     3.08656681     0.31160008    -0.33217174     2.59764794
O       5.77987099     6.68157098     1.64079402    -1.07407206    -0.63433921    -0.13008116
O       5.58593801     2.86683098     1.84974299    -0.42200766    -0.04435257    -3.17941424
O       2.02975301    -0.63578302     1.63067001    -0.68411501    -1.04312188    -1.06449521
O       1.74146999     2.61986899     1.84538199     2.95665815    -0.07084317    -2.71736369
