# total energy = -19071.53583482 eV

CRYSTAL
PRIMVEC
        5.17600016     0.00000000     0.00000000
        0.00000000     5.50899976     0.00000000
        0.00000000     0.00000000     9.26300011
PRIMCOORD
22 1
Ti      1.72430798     3.40578102     3.33897801     1.95782996     0.36870173    -1.92789048
Ti      3.83408301     2.34456701     5.96135302     0.90761981    -0.08910393    -0.94048855
Ti      4.30184099     2.57169100     1.53469700    -0.61638030    -0.48185962     0.42464304
Ti      1.24456298     2.41174199     7.82538602    -0.50583671     0.28794515    -0.52229280
Ti      1.50323699     0.72600399     1.31890799     0.88180541    -0.52094015     1.49362997
Ti      3.05572599     5.47599799     8.05261002     1.09285706     0.33180973    -0.65212174
Ti      0.61281498     5.23766799     6.30717501     0.32189606     0.51972941     0.12128798
Ti      4.46480102     5.10269900     3.52835297    -1.12858204    -0.53629658     0.50774087
O       4.03815498     3.40242001     4.39596299    -1.72082790    -0.52470296     0.01204099
O       0.44866103     2.13360902     0.35045398     0.72058407     0.16036105    -1.61381855
O       5.10052700     3.54545302     6.78183499     0.77368945    -0.39865792     0.44413767
O       2.82029598     1.28861201     0.12770301     1.19143293     0.32973613    -1.66865403
O       1.40803297     4.85976701     8.19682500    -1.13927037    -0.53860106     1.77656352
O       4.31800000     0.73383697     4.98962901     0.79361165    -1.00686700     0.24459968
O       1.09108501     4.56643401     4.48628302    -0.33043933     1.57539751     2.39752913
O       0.23109901     3.99857702     2.13514702     0.68175911     0.19793388    -0.25948765
O       4.84373500     0.96465700     7.46125698    -0.23986679     0.67032875    -0.57881904
O       2.66914200     1.99676902     2.30173202    -1.78761207     0.85978956     1.11010326
O       2.64723401     3.34094898     6.92639198    -0.15909504     1.75477419     0.62148677
O       5.07083899     1.12833200     2.40367299     0.92888310    -0.60517363     0.67215089
O       2.33820101     1.11464298     6.68403700    -1.74938233    -1.82319512    -0.53106027
O       2.81664000     4.94199899     2.57138100    -0.87467574    -0.53110886    -1.13128093
