# total energy = -19515.55991984 eV

CRYSTAL
PRIMVEC
        5.17600016     0.00000000     0.00000000
        0.00000000     5.50899976     0.00000000
        0.00000000     0.00000000     9.26300011
PRIMCOORD
23 1
Ti      1.86161900     3.14295202     3.33651199     1.49155869     0.15054535     3.48061060
Ti      3.33560302     2.34330497     5.93261298    -0.29230857     0.31030501    -3.61538042
Ti      4.31680099     2.16052699     1.56706000     2.29367838    -0.48660588    -2.56472983
Ti      0.88366801     3.39573200     7.74467400     0.29652312     0.23548306     3.09347791
Ti      2.00563798     0.23571502     1.43239402     0.55010547    -1.68767865    -2.27577296
Ti      3.29946799     5.20878798     7.87961197    -1.55322225     1.19334481     1.14752593
Ti      0.62447398     0.57263800     5.91663198     0.25688673     0.62745405    -3.46242724
Ti      4.56824501     4.89451199     3.26962800    -1.08361266     0.22596663     3.54730015
O       1.63063599     2.05152701     4.86214201     0.40219679    -0.30668978    -0.39073326
O       3.50956300     3.71616602     4.53474999    -0.53390288    -0.54620124    -0.39537976
O       0.12158900     2.49194298     0.04407501     0.28405841     1.02176963     0.12653020
O       3.33628402     0.68441399     0.14722600     1.86187944     2.28949108     1.00764707
O       1.67510900     4.75065198     9.06982400    -0.73477296    -1.45463738    -0.92348249
O       4.34057999     0.92686702     4.82222098    -0.52463277    -0.24633903    -0.19782718
O       0.91317001     4.70781302     4.30897298     0.96080592     0.73279141     1.25927177
O       0.10931902     3.19574301     2.79881398    -0.19327992    -1.26395504    -1.90573657
O       5.02961200     2.22284899     6.80366402    -0.76754503    -0.79276267    -0.26407116
O       2.84011499     1.58509399     2.51057298    -1.26300219     0.10365149     0.52501612
O       2.48315398     3.86262001     6.82268699    -0.21475738    -1.59468259     0.71277151
O       0.30879202     0.49879999     2.04599002    -1.82341727     1.44849758    -0.52328139
O       5.04246101     4.83696402     7.15950699    -0.57653230     0.07854466     0.29484291
O       2.31752499     0.93641502     6.87737402     0.62464460     0.55183196     0.77470504
O       2.94643400     4.27165899     2.05609900     0.53864863    -0.59012470     0.54912305
