# total energy = -19518.11004684 eV

CRYSTAL
PRIMVEC
        5.93400000     0.00000000     0.00000000
        0.00000000     9.29699974     0.00000000
        0.00000000     0.00000000     4.64899994
PRIMCOORD
23 1
Ti      4.49095698     6.95581000     2.26376900     1.94413266     0.38579546    -0.25586908
Ti      4.43685998     2.27352798     2.39151900    -0.01888476    -0.35905006    -0.19398286
Ti      1.55088400     7.05778103     2.24557901    -1.79246195     0.48480431    -0.09941920
Ti      1.40648100     2.34373800     2.29667001     0.12872773    -0.45620180    -0.37864907
Ti      2.92109001     4.44918198     0.12533097     0.55524382     0.21533845     0.80241717
Ti      2.96546301     0.00540401     4.51965500    -0.42663256    -0.57255095     0.36413005
Ti      0.00874402     4.65482402     4.64214498    -0.38951405     0.83471846    -0.15413281
Ti      5.92784101     0.11287599     0.01346603     0.03590161    -0.85716883     0.59602076
O       4.51290201     5.58262202     0.85828602    -1.03491080     0.38900625     0.51222950
O       4.48056097     0.96455699     0.99766099    -0.34991904    -0.14536457    -0.50611747
O       1.52868602     5.48456500     0.97600499     0.05446935     0.59337381    -0.27102728
O       1.51329199     0.86378698     0.87599198    -0.01586885     1.12825216     1.05590695
O       4.50106897     8.46840501     3.80220802    -0.38591039    -0.95815383    -1.13964756
O       4.38465501     3.75265899     3.83364200     0.42584040    -0.34064250    -0.79949922
O       1.40078499     8.44164399     3.66139999     1.03229882    -0.54188847     0.10403381
O       1.48193401     3.68772597     3.80258099     0.26398297     0.11998726    -0.26058269
O       2.87967999     1.38296400     3.26905998     0.46374208     0.51027829    -0.39423871
O       0.09213701     6.07133600     3.13705598    -0.48803490    -0.54734076     0.94358107
O       0.04422498     1.45373600     3.23554999    -0.42705499    -0.02286097     0.37067377
O       3.02796799     7.90092702     1.39731200    -0.15803831    -0.55097013     0.33015008
O       2.97304299     3.20390398     1.54226498    -0.19590991     0.68716794    -0.72128315
O       5.92651601     7.87084901     1.35971301     0.05607167     0.23590703     0.12719252
O       5.82746101     3.29486399     1.47990302     0.72272965    -0.23243630    -0.03188658
