# total energy = -19070.94289700 eV

CRYSTAL
PRIMVEC
        5.17600016     0.00000000     0.00000000
        0.00000000     5.50899976     0.00000000
        0.00000000     0.00000000     9.26300011
PRIMCOORD
22 1
Ti      1.54477597     3.08486503     3.60593099    -0.37667190    -0.84569965    -0.90843330
Ti      4.51666198     3.17231400     5.73424099    -0.57851797     0.30747397    -0.24877361
Ti      4.17244599     2.14080101     1.41954099     0.84959539    -0.43652257     2.01829899
Ti      1.39856001     3.06850599     8.03246398     0.80464246    -2.35288217    -0.17816672
Ti      1.57850801     0.47669800     1.27510100     0.81251569    -0.71268255     1.19291929
Ti      3.28168102     5.16662499     8.13088502     0.28569003     0.72285821    -0.64656892
Ti      1.37813700     0.16133101     5.84136297     2.00350563     0.32810502    -1.52892429
Ti      3.80757298     5.02037500     3.30934900     1.02886176     0.24735873     0.49288606
O       3.20427599     3.40575202     4.54957902    -1.07937548    -1.43094542    -1.10094524
O       0.69340000     1.83826900     0.56750402    -0.54883097     2.59422220    -3.62436591
O       4.94730801     3.71834301     7.58328801    -1.69552746     1.13944855     0.05717853
O       3.45918501     0.53995299     0.78878399    -0.78979922    -0.76050020    -3.80980680
O       1.99943501     4.31547302     9.19240998    -0.64327431     0.20138790     1.35283734
O       2.76238801     0.23052300     4.60240398    -0.28880056     1.72336584     1.97581689
O       0.15797100     4.62928301     4.77079199     0.54836406     0.19453591     1.16241494
O       4.92233598     3.34618302     2.72596802    -0.12686136     0.46400819    -1.32363757
O       0.71380100     2.08076400     5.10642102     0.12581338    -0.48511155     0.13458085
O       2.43474299     1.71792499     2.57416501    -0.15010286     2.13775557    -0.14594564
O       2.37787300     4.10766802     6.66334701    -0.33302920    -0.47146259     0.79605780
O       5.04634999     0.76394700     2.40735299     0.21175819    -1.31659351     1.85916487
O       2.19031099     1.04095002     7.28596702     0.28597594     1.58702687     2.03426298
O       2.12897602     4.71219101     2.54587302    -0.34593126    -2.83514725     0.43914921
