# total energy = -19961.02558802 eV

CRYSTAL
PRIMVEC
        5.93400000     0.00000000     0.00000000
        0.00000000     9.29699974     0.00000000
        0.00000000     0.00000000     4.64899994
PRIMCOORD
24 1
Ti      4.41685200     6.99146601     2.19698799     1.01978088     0.47851693     0.74271716
Ti      4.45097002     2.36486302     2.34318998    -0.10825480    -0.30000646    -0.67858251
Ti      1.50381998     6.89096102     2.28127302    -1.10540662     1.25123656     0.78036918
Ti      1.46635302     2.28417698     2.42448098     0.03798241    -0.73035838    -1.05863438
Ti      2.94409901     4.65186301     0.01155898     0.82671256    -0.70718656     0.30165273
Ti      2.98747599     0.03129798     0.05137200    -0.52619291     0.36380249    -0.40546003
Ti      0.02592799     4.64425402     4.58918900    -0.83236976    -0.35831884    -0.08316133
Ti      5.91217901     9.27331599     4.63612601     0.54055227    -0.18193955    -0.02355877
O       4.51060300     5.50160700     0.83420301    -0.56243777     0.50441617     0.56185953
O       4.51671500     0.95214402     0.95096300    -0.92178711    -0.38277981    -0.21094469
O       1.48682599     5.53844699     0.90924600     0.04695685     0.06274625    -0.44812468
O       1.47815600     0.86980801     1.01217500     0.29058464     0.03041565    -0.21220659
O       4.43064702     8.37463099     3.76301001    -0.17292089     0.20352243    -0.08076018
O       4.44461799     3.77484998     3.65049301     0.13232110     0.69744516     0.95994435
O       1.41906902     8.38799499     3.78801401     0.88396668     0.16830807    -0.30121590
O       1.54589301     3.74315798     3.75364098    -0.25102615     0.30957945     0.15555514
O       2.90256902     6.11981001     3.17419999     0.54926806    -0.81868094     0.58419831
O       3.02955500     1.39708297     3.18044502    -0.46215674    -0.14066639     0.91231490
O       0.03952801     6.14855899     3.21979999    -0.20950128    -1.06368737     0.31749485
O       0.03053300     1.48559200     3.42763102    -0.17090849     0.55128766    -1.29356310
O       3.00435499     7.98164301     1.43576202    -0.33049795    -0.90751876     0.11003889
O       2.91890499     3.26551201     1.47337001     0.47706040     0.32172406    -0.67804978
O       5.83839900     7.81218400     1.35668601     0.50980289     0.21992350     0.23918596
O       0.01328198     3.19204898     1.42087500     0.33847146     0.42821816    -0.19106903
