# total energy = -19961.63657937 eV

CRYSTAL
PRIMVEC
        7.60600008     0.00000000     0.00000000
        0.00000000     7.60600008     0.00000000
       -1.89786986    -1.89786986     4.85670466
PRIMCOORD
24 1
Ti      3.85083999     6.70730402     1.13205497    -1.11179273     0.85794042     0.60978825
Ti      3.78748298     2.92961802     1.23216901     1.00372202    -0.85239763    -1.01861000
Ti     -0.08344099     6.60993202     1.23263299     1.25999580     0.17953866    -0.17437048
Ti      0.01974000     2.78071903     1.23814602    -0.89764007     0.01751128     0.68451996
Ti      5.66321122     2.77079224     3.69946979     0.93426030    -0.09457704    -0.96313226
Ti      5.68187525    -0.98848178     3.66301684    -0.27677962     0.29447704     0.11495124
Ti      1.93796224     2.90906822     3.62459984    -1.00569200    -0.53481665     0.14525658
Ti      1.89938321    -0.87012075     3.58040084     0.32634536     0.11858883    -0.03584273
O       3.91314998     4.84541001     0.73989701    -0.22192974    -1.33092767     0.63735203
O       3.86593901     1.02866199     0.66515098    -0.28531285    -0.74778481     0.83274437
O      -0.07076100     4.65985898     0.81598502    -0.13192772     1.35381821    -0.02925942
O      -0.08354502     0.97275902     0.92043498     0.25979207    -1.70593812    -1.26188736
O       5.63370525     4.71508423     4.07109182    -0.18642125     0.17455354     0.39677356
O       5.77046624     0.87252221     4.08093780    -0.33852417     0.15414900     0.05662985
O       2.04568823     4.77322224     4.05844083    -0.25018231     0.09991645    -1.11240516
O       1.94967722     0.95399524     4.11012579    -0.33493182     0.96434145    -0.69042347
O       3.75065023     2.66791622     3.12578583     0.91332380     0.41551202     1.16505289
O       3.78278923    -0.91146977     3.09232780     0.41026697    -0.10566672     0.84740635
O      -0.05127479     2.74510222     3.24533580     0.89126450     0.52770112     0.53228771
O      -0.01942176    -0.99402380     3.26230779    -0.05752408    -0.29708851    -0.49344245
O       5.69176901     6.80618301     1.66162302     0.40229860    -0.56401591     0.04355476
O       5.73289899     2.78077401     1.69762099    -1.26453714     0.54007636    -0.11012373
O       1.88126201     6.68765101     1.52977099    -0.36288281    -0.01899455     0.26244571
O       1.88762499     2.80239000     1.66462700     0.32480887     0.55408322    -0.43926620
