# total energy = -19925.19818417 eV

CRYSTAL
PRIMVEC
        6.24188372     0.00000000     0.00000000
        1.31552796     6.51169566     0.00000000
        0.00000000     0.00000000    11.22843490
PRIMCOORD
24 1
Ti      3.04196318     3.85882482     4.16566941    -0.14050621    -1.74156283     0.76178781
Ti      4.51544819     2.65287100     7.06276594     0.14050621     1.74156283    -0.76178781
Ti      5.91916904     2.65287333     1.44850340     0.05834684    -0.23010096    -0.27675313
Ti      1.63824236     3.85882274     9.77993207    -0.05834684     0.23010096     0.27675313
Ti      2.38419935     0.60297723     1.44854843    -0.14050621    -1.74156283    -0.76178781
Ti      5.17321204     5.90871878     9.77988705     0.14050621     1.74156283     0.76178781
Ti      0.98047843     0.60297471     7.06272092    -0.05834684     0.23010096    -0.27675313
Ti      6.57693297     5.90872130     4.16571443     0.05834684    -0.23010096     0.27675313
O       2.43881525     2.29287877     5.72978455     1.74648932     1.91249008    -0.51732775
O       5.11859612     4.21881705     5.49865079    -1.74648932    -1.91249008     0.51732775
O       1.60860776     2.29290499     0.11560305    -0.89068934     0.37165696     0.75573209
O       5.94880368     4.21879089    11.11283198     0.89068934    -0.37165696    -0.75573209
O       4.46083228     0.96296927     0.11556660    -1.74648932    -1.91249008    -0.51732775
O       3.09657910     5.54872655    11.11286843     1.74648932     1.91249008     0.51732775
O       5.29103984     0.96294310     5.72982100     0.89068934    -0.37165696     0.75573209
O       2.26637148     5.54875279     5.49861434    -0.89068934     0.37165696    -0.75573209
O       1.02696068     3.96078236     3.03308050     0.46947924     1.20033204     1.40111907
O       6.53045069     2.55091347     8.19535484    -0.46947924    -1.20033204    -1.40111907
O       3.86307318     2.55085265     2.58117289     0.65567269     1.40728407     0.57850460
O       3.69433819     3.96084318     8.64726226    -0.65567269    -1.40728407    -0.57850460
O       0.36919684     0.70493457     2.58113701     0.46947924     1.20033204    -1.40111907
O       7.18821454     5.80676131     8.64729814    -0.46947924    -1.20033204     1.40111907
O       3.03657434     0.70499533     8.19539066    -0.65567269    -1.40728407     0.57850460
O       4.52083703     5.80670049     3.03304462     0.65567269     1.40728407    -0.57850460
