# total energy = -19920.32732644 eV

CRYSTAL
PRIMVEC
        6.34821871     0.00000000     0.00000000
        0.67399222     6.72272304     0.00000000
        0.00000000     0.00000000    11.37617748
PRIMCOORD
24 1
Ti      2.70033118     3.98387949     4.22048081    -0.09984214    -1.34339110     0.70940773
Ti      4.32187994     2.73884361     7.15569706     0.09984214     1.34339110    -0.70940773
Ti      5.74951403     2.73884589     1.46756269     0.15189440     0.37107049    -0.50913595
Ti      1.27269712     3.98387753     9.90861538    -0.15189440    -0.37107049     0.50913595
Ti      2.36333521     0.62251802     1.46760832    -0.09984214    -1.34339110    -0.70940773
Ti      4.65887593     6.10020533     9.90856974     0.09984214     1.34339110     0.70940773
Ti      0.93570105     0.62251555     7.15565149    -0.15189440    -0.37107049    -0.50913595
Ti      6.08651002     6.10020774     4.22052644     0.15189440     0.37107049     0.50913595
O       2.24657550     2.36718508     5.80517644     1.61054810     1.64764322    -0.27560333
O       4.77563563     4.35553808     5.57100143    -1.61054810    -1.64764322     0.27560333
O       1.40222204     2.36721227     0.11712413    -1.17790610     0.88814061     0.35259196
O       5.61998915     4.35551095    11.25905348     1.17790610    -0.88814061    -0.35259196
O       4.43863964     0.99417636     0.11708724    -1.61054810    -1.64764322    -0.27560333
O       2.58357149     5.72854681    11.25909037     1.61054810     1.64764322     0.27560333
O       5.28299316     0.99414923     5.80521339     1.17790610    -0.88814061     0.35259196
O       1.73921790     5.72857394     5.57096455    -1.17790610     0.88814061    -0.35259196
O       0.64060572     4.08914140     3.07298942     0.47252754     0.43679279     0.86436792
O       6.38160534     2.63358177     8.30318845    -0.47252754    -0.43679279    -0.86436792
O       3.66879321     2.63351916     2.61513568     0.55440307     0.92029047     0.15985480
O       3.35341792     4.08920394     8.76104206    -0.55440307    -0.92029047    -0.15985480
O       0.30360973     0.72777968     2.61509932     0.47252754     0.43679279    -0.86436792
O       6.71860133     5.99494343     8.76107836    -0.47252754    -0.43679279     0.86436792
O       3.01642193     0.72784228     8.30322475    -0.55440307    -0.92029047     0.15985480
O       4.00578920     5.99488088     3.07295312     0.55440307     0.92029047    -0.15985480
