# total energy = -19958.82077322 eV

CRYSTAL
PRIMVEC
        7.60600008     0.00000000     0.00000000
        0.00000000     7.60600008     0.00000000
       -1.89786986    -1.89786986     4.85670466
PRIMCOORD
24 1
Ti      3.69520600     6.55738700     1.28501498     1.94537631    -0.77802973     0.82977500
Ti      3.66093802     2.85512198     1.15441102     1.42047846     1.60581264     0.33548564
Ti      0.06859598     6.58870101     1.21954702    -2.04743423     1.13330516     1.24251975
Ti      0.01383201     2.90139499     1.18502101    -1.70260237    -0.76898742    -2.00989071
Ti      5.69326224     2.85021624     3.62140482    -1.22080189     0.79589273     0.07026853
Ti      5.88374425    -0.91335380     3.71300181    -0.39712554    -1.74151629    -1.03245000
Ti      1.71234524     2.91861023     3.52738680     3.26699890     1.02634671     2.40955187
Ti      1.98585320    -0.88769076     3.74756581    -0.11354639    -0.84607940    -1.34170420
O       3.79788501     4.77148199     0.82406302     0.11732797    -1.79185542    -0.29038024
O       3.64110398     0.91043999     0.67839698     0.07081052     1.68193558     2.59633590
O       0.03694599     4.81299700     0.66278498    -0.70375182    -3.71420441    -0.12254114
O       0.06701998     0.92167500     0.83926602     0.39934158     1.38542634    -0.25414387
O      -1.59672075     4.66183524     4.25891381    -0.07614839     0.78931636    -3.95118770
O       5.97908823     0.87598123     3.92709084    -0.67259364     2.02508465     0.67129112
O       1.72877821     4.69882320     4.32848184     0.09355194    -0.09576000    -3.56677961
O       1.60534523     1.01668624     3.99637781     0.99162086    -0.50567782     0.47352384
O       3.71445424     2.83766622     3.29209380     1.09796456    -0.34587392    -1.50063854
O       3.89829423    -1.09466379     3.46407879    -1.04448225     0.70476689    -0.98209081
O       0.00203421     2.76676520     3.03417683    -2.14942890     0.20407522     0.61542102
O       0.10947624    -1.01586178     3.20279879    -0.25357720    -0.13470220     0.67006187
O       5.79859799     6.44605800     1.57651200    -0.83838409     0.86157802     1.30589875
O       5.68974702     2.94197399     1.31704698    -0.47574476    -0.35374613     1.39403414
O       1.89701699     6.41745502     1.62300700     1.47485371     0.56916249     1.46972770
O       1.83503499     3.37223002     1.56420101     0.81729666    -1.70627031     0.96791143
