# total energy = -19959.41346301 eV

CRYSTAL
PRIMVEC
        7.60600008     0.00000000     0.00000000
        0.00000000     7.60600008     0.00000000
       -1.89786986    -1.89786986     4.85670466
PRIMCOORD
24 1
Ti      3.78873702     6.37221401     1.14683500     0.47553599     2.03098559    -0.35671524
Ti      3.76794702     2.59274902     1.27181000     1.42265541    -0.78317143    -0.34552065
Ti     -0.00396899     6.79409100     1.21877998     0.33808425    -0.74964500    -2.21390859
Ti      0.02671498     2.82265198     1.24837401    -1.35185183     0.91068868     1.09865876
Ti      5.63249825     2.87844822     3.76827580     0.41219581     4.44582571    -1.91238775
Ti      5.76328822    -0.60833677     3.58886482    -1.45302658    -2.45130223    -0.66051588
Ti      1.75270824     2.72839424     3.65290881     2.22727910     0.66408560     0.33318475
Ti      1.93172721    -0.85984276     3.50057281     1.06646879    -1.27281506     1.47496710
O       3.94668802     4.52350101     0.76521099    -0.45642806     1.18510031     0.93468119
O       3.88536002     0.82780499     0.56650901    -0.41558916     0.63203498     1.61226971
O       0.37497003     4.82191999     0.83610900    -1.25089152    -0.54774725     0.64308508
O      -0.02334201     1.04701301     0.63113701     0.39424925     0.50209524     0.87389721
O       5.76150621     4.84267623     4.08845884    -0.40007383    -0.10302800     0.17598873
O       5.39667422     1.17645623     4.09510080     0.50956352    -3.86024852     1.29410818
O       1.93518924     4.62062022     4.09105281    -0.32567867    -0.56767485    -0.09189049
O       1.83161121     0.84310324     4.10266883    -0.00484216     1.41917028    -0.36868245
O       3.84111123     2.89963420     3.15129884    -1.00502840     0.17445738     0.76917845
O       3.77288023    -0.89378175     3.30368982     0.92981563    -0.39740708    -1.34792447
O       0.02718923     2.90262723     3.31992583    -1.71209077    -0.16974301    -0.90844873
O       0.01574821    -0.70652079     3.20061281    -0.91827318    -0.21593238    -0.36474634
O       5.67333300     6.91644000     1.64091399     0.38633462    -1.05304480    -0.11811292
O       5.71123099     2.55845098     1.73425699     1.42775571     0.80936326    -0.26062434
O       1.95252901     6.91362198     1.49596900    -0.03999738    -0.95647747     0.56007235
O       1.86935499     2.49681099     1.73669999    -0.25616656     0.35443004    -0.82061416
