# total energy = -19903.89155408 eV

CRYSTAL
PRIMVEC
        6.68449197     0.00000000     0.00000000
        3.04721085     6.42869070     0.00000000
        0.00000000     0.00000000    12.29436045
PRIMCOORD
24 1
Ti      4.22858110     3.80963612     4.56112001    -0.18418824    -2.10305158     0.40322214
Ti      5.50312150     2.61905449     7.73324051     0.18418824     2.10305158    -0.40322214
Ti      7.00637995     2.61905667     1.58601114    -0.22483920    -1.31985007     0.33994522
Ti      2.72532277     3.80963419    10.70834958     0.22483920     1.31985007    -0.33994522
Ti      2.70497583     0.59529087     1.58606042    -0.18418824    -2.10305158    -0.40322214
Ti      7.02672681     5.83339994    10.70830031     0.18418824     2.10305158     0.40322214
Ti      1.20171734     0.59528850     7.73319124     0.22483920     1.31985007     0.33994522
Ti      8.52998537     5.83340229     4.56116935    -0.22483920    -1.31985007    -0.33994522
O       3.18865859     2.26365125     6.27371804     1.78107015     1.99291885    -0.82624256
O       6.54304401     4.16503936     6.02064255    -1.78107015    -1.99291885     0.82624256
O       2.29958817     2.26367722     0.12657735    -0.02296767    -1.01774097     1.73464733
O       7.43211453     4.16501351    12.16778290     0.02296767     1.01774097    -1.73464733
O       5.01943872     0.95069398     0.12653741    -1.78107015    -1.99291885    -0.82624256
O       4.71226390     5.47799669    12.16782278     1.78107015     1.99291885     0.82624256
O       5.90850922     0.95066806     6.27375791     0.02296767     1.01774097     1.73464733
O       3.82319333     5.47802263     6.02060261    -0.02296767    -1.01774097    -1.73464733
O       2.09634938     3.91029415     3.32101349     0.64234151     2.99542654     2.80950383
O       7.63535315     2.51839648     8.97334710    -0.64234151    -2.99542654    -2.80950383
O       4.77881827     2.51833666     2.82620588     0.53155135     2.16327558     1.85199355
O       4.95288433     3.91035396     9.46815444    -0.53155135    -2.16327558    -1.85199355
O       0.57274407     0.69594870     2.82616661     0.64234151     2.99542654    -2.80950383
O       9.15895846     5.73274192     9.46819371    -0.64234151    -2.99542654     2.80950383
O       3.42927902     0.69600851     8.97338624    -0.53155135    -2.16327558     1.85199355
O       6.30242358     5.73268210     3.32097421     0.53155135     2.16327558    -1.85199355
