# total energy = -19517.64772658 eV

CRYSTAL
PRIMVEC
        7.60600008     0.00000000     0.00000000
        0.00000000     7.60600008     0.00000000
       -1.89786986    -1.89786986     4.85670466
PRIMCOORD
23 1
Ti      3.79328398     6.77582703     1.27665398     0.41236730    -0.05607295    -1.14357003
Ti      3.79751200     2.89655598     1.20953002     0.35602696     0.15532657     0.98365918
Ti      0.02633202     6.58926098     1.07233700    -0.18268826     1.03224971     1.55699637
Ti     -0.07934801     2.78026801     1.11904198    -0.58933563    -0.94242741     1.11902164
Ti      5.75498421     2.73065124     3.76041381    -2.58761163    -0.24458245    -1.44684076
Ti      5.72862425    -1.05854977     3.53635879     0.68616804     0.79771899    -0.19009972
Ti      2.00986123     2.89674722     3.75017979     2.05239517     0.13912964     1.57830774
Ti      1.94751521    -0.90781580     3.65619479    -1.00583161    -0.18310992    -0.13642073
O       3.90892000     4.84278598     0.94737301    -0.57699742    -1.06691591     0.03097898
O       3.67704998     1.02765201     0.77175501    -0.34516559     0.25513837    -0.20494348
O      -0.27367301     4.66070201     0.77605003     1.33909556     0.51211817     0.68564045
O       0.17345203     0.88365002     0.60584101    -0.03200716     0.06171755     0.81327906
O       5.46545525     4.69782824     4.03957080     0.83572197    -0.03936438    -1.71179947
O       5.73237220     0.86968821     4.11765079     0.97015729     0.66625998    -1.61471406
O       1.99639521     4.86198924     4.07192279    -0.04120734    -0.56526778    -0.25399449
O       1.73813422     0.99742323     4.11244681    -0.61293014     0.62844135     0.41290338
O       3.83635922     2.59027623     3.52392879    -0.55039343     0.81237711    -1.76374863
O       3.75124820    -0.57396179     3.18139982     0.97250599    -0.96324976     0.39445982
O       0.05809821    -0.97810879     3.04365683    -0.83709854    -0.27399614     0.56657622
O       5.71959299     6.87765602     1.47161399     0.45705104    -0.60773779     1.30218736
O       5.60009101     2.62750898     1.47692900     1.51829869     0.40201038     1.07170124
O       1.96945897     6.64204599     1.43316201    -1.62691292    -0.45839727     0.53231034
O       1.66774100     2.96667398     2.01895901    -0.61160833    -0.06136634    -2.58189067
