# total energy = -39024.62774207 eV

CRYSTAL
PRIMVEC
        5.93200024     0.00000000     0.00000000
        0.00000000     9.29399984     0.00000000
        0.00000000     0.00000000     9.29399984
PRIMCOORD
46 1
Ti      4.53454002     7.08957601     6.96409400    -0.99338876    -1.72814835     2.33656080
Ti      4.37755800     7.16131900     2.13450602     1.45873520    -1.29300492     0.37377015
Ti      4.58327899     2.20686101     6.66830398    -0.80319004    -0.85539297     1.42240216
Ti      4.22442299     2.69741102     2.42161802     1.40602551    -0.90516183    -0.03434558
Ti      1.64065601     6.81117898     7.17443598    -1.46019739     0.44458195     1.23544355
Ti      1.56104299     6.91849199     1.95673300    -0.59117243     0.69586342    -0.43814957
Ti      1.58498101     2.44432301     7.27149000     0.38659559    -4.74079126    -2.06534660
Ti      1.25586001     2.30987499     4.12228601    -0.46550766     0.78851367     0.29481771
Ti      2.92549203     4.89687302     4.44026899     1.46429239    -0.34574665    -0.21338699
Ti      2.98463499     4.58975601     0.09833098     0.52701875     0.35810107    -1.60572780
Ti      2.88175098     9.20883500     4.79065397    -1.09263954    -0.16232872     0.05316452
Ti      2.97083299     9.07346199     9.06225000    -1.02629786     3.11244854    -0.88456189
Ti      0.07280003     5.48792200     4.51221001    -1.59786922    -1.88269690     0.67161687
Ti      5.85816398     4.22681699     9.02881002    -1.73112491     2.84281351    -1.79067091
Ti      5.85725099     8.80121400     4.59149600     3.22788623     3.28688999    -2.52781726
Ti      5.89637502     0.23175201     0.25458400    -0.09514962     1.41121683    -0.64344683
O       4.34273501     6.06995500     5.23233600    -0.80505975    -2.36183989    -0.03535602
O       4.50375502     5.02415301     1.04821298     0.96240104    -0.95441647    -0.41554648
O       4.55646002     0.53091798     5.38271701    -0.55160468     2.89021567     1.39399660
O       4.39746099     1.45106900     0.52768301     0.90532073    -1.51343364     3.73715382
O       1.60018200     5.86593500     5.57200498     0.18851927    -1.48777017    -1.68584366
O       1.53591300     5.72017001     0.45641601    -1.47764542    -1.52612616     1.36855784
O       1.30867100     0.54960201     5.52438601     0.19813674     1.04452056    -0.56912932
O       1.64005900     0.74235101     0.80532300     0.91057066    -0.63116029    -0.67651046
O       4.91276702     8.37774001     8.41477401    -2.66351165    -0.83292666    -1.09816716
O       4.47492402     8.29800099     3.57754101    -2.96672196    -0.19443024    -2.03898455
O       4.17467398     3.55983399     8.16050900     1.75496034     1.02380749     0.44071219
O       4.63536998     4.11684300     3.62093899    -1.57762383    -0.53454900     0.64597320
O       1.51349498     8.48900800     8.03133402     0.49647223    -0.08757772     1.61757981
O       1.55563998     8.64243701     3.48382901     0.62032592    -1.46632947    -0.46390329
O       1.64044302     4.00941801     7.96867700    -0.93577057     0.13859588     1.85068563
O       1.23817703     4.21211698     3.67878198     1.14071713    -1.11754095     0.91860536
O       3.00939800     5.99395801     7.87640500     2.14803587     0.50270690     0.03479038
O       2.85191300     5.95266599     2.95018201     0.64999312     0.85261335     0.03872700
O       3.22813998     1.47439799     7.86794499    -2.17471725    -1.51941249    -1.28923722
O       2.99973501     1.92297001     3.50276302     0.49394638    -1.11681255    -1.67844479
O       5.62447597     5.58828602     7.64829299     0.92100292     1.56130657     0.42502768
O       0.00404799     6.28748199     2.93580998     0.52171045    -0.55703382     1.20377706
O       5.85678801     1.37874799     7.93162602     1.51497245     2.14372619    -1.77563458
O       2.93497700     7.85968797     6.22606600     0.66201149     1.30927846    -1.43500314
O       3.06303599     7.54911999     0.92598399     0.14583894     1.36058433    -0.28641663
O       2.64154102     2.54084001     5.69925099     2.34810120     2.63285869     0.69226233
O       5.83445203     7.72449499     5.85037402     2.22184816    -2.74196375     2.77312245
O       0.05988302     7.73253901     1.26151798    -1.42549031     2.11446600    -0.98649742
O       0.25072598     2.90683800     5.78362598    -1.46338170     0.09905256     0.48098930
O       0.15013399     1.97894299     2.71912798    -1.37737390    -0.05756651     0.62839199
