# total energy = -19927.20458272 eV

CRYSTAL
PRIMVEC
        6.49298141     0.00000000     0.00000000
        0.00002285     3.72103622     0.00000000
        0.00000000     0.00000000     9.82333819
PRIMCOORD
24 1
Ti      2.35340709     2.20508274     3.64438854    -0.47728768     1.83227344    -1.66855684
Ti      4.13959732     1.51595379     6.17895006     0.47728768    -1.83227344     1.66855684
Ti      5.59978653     1.51595511     1.26724154    -0.47657857    -1.83276246     1.67077493
Ti      0.89321789     2.20508152     8.55609715     0.47657857     1.83276246    -1.67077493
Ti      2.35339577     0.34456468     1.26728091    -0.47728768     1.83227344     1.66855684
Ti      4.13960865     3.37647195     8.55605778     0.47728768    -1.83227344    -1.66855684
Ti      0.89320657     0.34456321     6.17891069     0.47657857     1.83276246     1.67077493
Ti      5.59979785     3.37647337     3.64442791    -0.47657857    -1.83276246    -1.67077493
O       2.05507772     1.31024017     5.01277445     3.40478334    -1.66932483     2.96202713
O       4.43792669     2.41079631     4.81056415    -3.40478334     1.66932483    -2.96202713
O       1.19146715     1.31025516     0.10113676    -3.40511578    -1.66957782     2.96216417
O       5.30153732     2.41078137     9.72220153     3.40511578     1.66957782    -2.96216417
O       4.43791537     0.55027820     0.10110489    -3.40478334     1.66932483     2.96202713
O       2.05508904     3.17075833     9.72223340     3.40478334    -1.66932483    -2.96202713
O       5.30152600     0.55026320     5.01280631     3.40511578     1.66957782     2.96216417
O       1.19147831     3.17077333     4.81053223    -3.40511578    -1.66957782    -2.96216417
O       0.23591892     2.26334519     2.65352880     1.55546348    -0.26627280     1.61960122
O       6.25708550     1.45769134     7.16980979    -1.55546348     0.26627280    -1.61960122
O       3.48241764     1.45765654     2.25817169     1.55618648     0.26643863    -1.62076773
O       3.01058678     2.26337999     7.56516670    -1.55618648    -0.26643863     1.62076773
O       0.23590760     0.40282703     2.25814034     1.55546348    -0.26627280    -1.61960122
O       6.25709682     3.31820950     7.56519805    -1.55546348     0.26627280     1.61960122
O       3.01057546     0.40286182     7.16984109    -1.55618648    -0.26643863    -1.62076773
O       3.48242896     3.31817470     2.65349745     1.55618648     0.26643863     1.62076773
