# total energy = -4982.88968670 eV

CRYSTAL
PRIMVEC
        4.30558686     0.00000000     0.00000000
        0.00000000     3.24817504     0.00000000
        0.00000000    -0.00008588     5.69480544
PRIMCOORD
6 1
Ti      2.15279337     1.62404441     2.84740278     0.00000000     0.00000000     0.00000000
Ti      0.00000000     0.00000000     0.00000000     0.00000000     0.00000000     0.00000000
O       2.15279337     0.63300467     1.10983373    -0.00000000     0.05759479     2.15461970
O       2.15279337     2.61508415     4.58497182    -0.00000000    -0.05759479    -2.15461970
O       0.00000000     0.99100560     3.95723768     0.00000000    -0.05793186     2.15587517
O       0.00000000     2.25708323     1.73756787     0.00000000     0.05793186    -2.15587517
