# total energy = -19518.19769869 eV

CRYSTAL
PRIMVEC
        5.93400000     0.00000000     0.00000000
        0.00000000     9.29699974     0.00000000
        0.00000000     0.00000000     4.64899994
PRIMCOORD
23 1
Ti      4.46282502     7.10677802     2.20775903     0.79480027     0.19292768     0.36344099
Ti      4.45882401     2.32496702     2.35073600     0.16317075    -1.07748880     0.35428761
Ti      1.41301798     7.03313899     2.21858398    -0.75236266     0.46833638     0.42451012
Ti      1.44589301     2.31901002     2.36874099     0.25369599    -0.98299172     0.13152535
Ti      2.94515101     4.47242699     0.23327398     0.73775750     0.24496786     0.11313269
Ti      2.97102699     0.00450499     4.60476300     0.11667002    -0.04932818    -0.58274358
Ti      5.93172200     4.58046302     4.61977899    -0.18286232     0.50074104     0.07530095
Ti      0.01825699     0.09971700     0.01958898    -0.08920780    -0.27098409    -0.33832233
O       4.46391401     5.51247799     0.94473898    -0.35538238     0.44169280    -0.15272616
O       4.37050698     0.84400602     0.94676102     0.81694159     0.52873522     0.37344336
O       1.53334199     5.47742000     0.93866799    -0.07534312     0.71447307    -0.03574066
O       1.59690602     0.95008102     0.93255298    -0.83534581    -0.42712416    -0.15123980
O       4.51671198     8.52169501     3.63003502    -0.48808221    -1.19622239    -0.03262423
O       4.46950598     3.74981498     3.81761602    -0.23022412    -0.09415435    -1.05508137
O       1.39637599     8.35908800     3.68523699     0.64675121     0.30890299     0.19200594
O       1.54305202     3.64591399     3.80146098    -0.15519981     0.91736095    -0.26591233
O       3.04641601     1.45440901     3.30473801    -0.45550426    -0.06416936    -0.28670022
O       0.01351302     6.15959398     3.06622597    -0.38785054    -1.58401636     1.46666809
O       5.91884902     1.42675601     3.25002400     0.33266488     0.19734715     0.11811035
O       2.93582998     7.82721401     1.29890398     0.31408659    -0.56817776     0.50672348
O       2.99931903     3.14693900     1.47005599    -0.28226095     0.73896695    -0.26342941
O       5.90525001     7.91700898     1.39540601     0.36317797     0.67117182    -1.06243216
O       0.04972901     3.16924901     1.37194901    -0.25009053     0.38903325     0.10780357
