# total energy = -19960.32250813 eV

CRYSTAL
PRIMVEC
        7.60600008     0.00000000     0.00000000
        0.00000000     7.60600008     0.00000000
       -1.89786986    -1.89786986     4.85670466
PRIMCOORD
24 1
Ti      3.76268102     6.56438198     1.26142997     0.69296244    -1.44348856     0.18820405
Ti      3.75943097     2.75383502     1.17245300     0.82660149     1.00168237     2.04656262
Ti      0.08144900     6.72568002     1.32748500    -0.81531871     0.21791290    -1.39872589
Ti      0.02667403     2.94543100     1.09250501    -0.86853311     0.24970229     0.03454047
Ti      5.70600023     3.09004525     3.62231183    -1.46144540    -0.47686422    -0.79035740
Ti      5.75202621    -0.87200875     3.64951980    -1.04031860     0.03287157    -0.53641382
Ti      1.74940125     2.76455324     3.64177582     1.24019675     0.43181025     0.09685478
Ti      1.86373920    -1.05077478     3.73769179     1.39876831    -0.59367565    -1.27341542
O       3.76187598     4.58401899     0.71482702    -0.71079742     1.39942986     0.65082436
O       3.76375102     0.83536598     0.73859899    -0.19470740    -0.29410063     1.78570946
O       0.23709199     4.96095602     0.70269902    -1.04528366    -2.53799395     0.15582125
O       0.15587202     0.97371101     0.79139601    -0.81884267     1.34004532    -0.40362067
O       5.91602020     4.92777523     4.05770184    -0.13069128    -0.66368965    -0.17664694
O       5.77494123     1.11278424     3.84153483    -0.64590995    -1.56858383     1.96543915
O       1.80177424     4.61454722     4.12247382    -0.40024866     0.44092739    -0.08503644
O       1.97771324     0.86601122     4.13061479    -0.16135221    -0.55063846    -1.61015858
O       3.78175622     2.89039720     3.19396979    -0.70760745    -0.02188138     0.05069960
O       3.78130123     6.28403525     3.25796081     0.48851338     1.51660253    -0.23271063
O      -0.10964378     2.88558021     3.09085383     1.29420717     0.06171395     0.08463021
O       0.04331025    -0.79636779     3.24174079    -0.62971559    -0.03167446     0.13320196
O       5.70106200     6.52482900     1.54480900     0.05564564     0.57000555     0.94112155
O       5.61644301     3.00247297     1.60496999     1.06763119    -0.40928327    -0.79786477
O       1.87978698     6.39695199     1.72849298     1.16744582     1.02766672    -0.07192124
O       1.76406602     2.73261099     1.67160399     1.39879968     0.30150335    -0.75673790
