# total energy = -19070.12471345 eV

CRYSTAL
PRIMVEC
        5.17600016     0.00000000     0.00000000
        0.00000000     5.50899976     0.00000000
        0.00000000     0.00000000     9.26300011
PRIMCOORD
22 1
Ti      1.69304001     3.30802701     3.26123599     0.64986482     0.93378722    -0.89226080
Ti      3.74540698     2.26319601     6.09733897    -0.45065002    -0.09343110    -1.73254956
Ti      4.27252499     2.06009698     1.16393298     1.89979114     1.52030723     2.34597515
Ti      0.92248898     3.29350401     8.13996401    -1.73634863    -2.07783753     1.31151147
Ti      1.70354698     0.43500000     1.26170499     0.21744984     1.06797854     0.04834293
Ti      3.07269802     5.15180702     7.98789101     2.96806408     0.89963704    -0.75731949
Ti      0.69258099     0.42185899     6.03392502    -0.89965813     0.24290866    -2.95136476
Ti      4.26457500     4.97071098     3.51668398     0.94914777    -1.06968781    -0.07572930
O       3.24665102     3.30303200     4.38890599     0.32955873     0.49501596     1.93659959
O       1.13866202     2.23114898     0.61329902    -1.83302111    -0.47426664    -2.64781146
O       4.47167799     3.96357200     8.78471198     2.70327738    -0.78693347     1.71255974
O       3.40374501     1.02076302     0.04307402    -0.51352303    -1.18269504    -1.60680123
O       1.42622101     4.89484998     8.78225199     0.39221345     4.08280252     1.85647832
O       4.66117600     1.10133999     4.62473801    -0.70735625    -1.74458105     0.68023316
O       1.03191998     4.67045602     4.32411200    -1.59815461     0.24516583     1.10592110
O       5.04437002     3.27272200     2.48720002     0.84287195     0.74039802     1.08916675
O       0.44139399     2.42619101     6.34210298     0.22437871    -0.08597078     2.02228729
O       2.74628700     1.78602698     2.34709399     0.04966088    -0.47486519     0.25801518
O       2.86440502     3.41406302     7.76542701    -3.22385757    -4.16552728    -4.48811214
O       0.02260502     0.39628401     2.06507300    -0.00407211     0.83209542    -0.71001734
O       2.51957900     0.51073098     6.28121701     0.80899662     1.14590974     1.06553085
O       2.76744800     4.61483801     2.17417199    -1.06863366    -0.05021032     0.42934456
