# total energy = -19517.74564910 eV

CRYSTAL
PRIMVEC
        7.60600008     0.00000000     0.00000000
        0.00000000     7.60600008     0.00000000
       -1.89786986    -1.89786986     4.85670466
PRIMCOORD
23 1
Ti      3.77491602     6.76844701     1.26348599     0.48231573     0.16664251     0.52009554
Ti      3.72227601     2.96846101     1.18698098     1.16059974    -0.07164382     0.45710477
Ti     -0.06769299     6.56419603     1.22170199    -0.23073114    -0.20660621    -0.70086061
Ti     -0.02401099     2.77099402     1.15425200    -0.33451067     0.86273244    -0.63836324
Ti      5.71115722     2.72067222     3.56078080    -0.73735152    -1.17096129     0.10641851
Ti      5.75697323    -1.18706575     3.61327682    -2.15807552     1.55115560     0.76248381
Ti      2.03138224     2.97558622     3.66908983     1.13078522    -0.73584691    -0.24900398
Ti      1.85364721    -0.95203676     3.66686083     1.39869941     0.97835962     0.26538320
O       4.22843400     4.73363200     0.64386499    -1.01826547     1.28116010     2.58045985
O       3.76526002     1.02166400     0.82226101    -0.84855640     0.17514233    -0.02422597
O      -0.23291700     4.66635997     0.70134200     0.69321235     1.57029978     1.24781262
O       0.07736899     0.94736201     0.73517003     0.34207409    -1.79193410     0.00456654
O       5.62976023     4.57196121     3.98981480     0.90216572     2.08769489     0.78579704
O       5.63324825     0.90439324     4.05348281     0.86960346    -0.28557048    -0.60103698
O       1.98923020     4.82651621     4.18672679    -0.82767518    -0.30357438    -0.65429046
O       1.87971422     1.03636422     4.11180079    -0.94482214    -0.82101576    -1.32781895
O       3.90747720     2.98318521     3.25115480    -1.81122252    -0.49847461    -1.37096208
O       3.73320125    -0.95306976     3.31616179    -0.04784053    -0.32305923    -0.70897707
O      -0.07469480    -1.18154876     3.29675781     1.38857671     0.23923867    -1.16276050
O       5.62151099    -0.58210598     1.68716101     1.55573088    -1.45469163     0.30298457
O       5.74004400     2.69614301     1.56931800     0.78934825     0.00877826     0.86923348
O       1.87951699     6.68662700     1.62818198    -0.98599040    -0.44752792     0.21246525
O       1.90210302     3.25079898     1.73154199    -0.76807030    -0.81029735    -0.67650609
