# total energy = -19072.91317841 eV

CRYSTAL
PRIMVEC
        7.60600008     0.00000000     0.00000000
        0.00000000     7.60600008     0.00000000
       -1.89786986    -1.89786986     4.85670466
PRIMCOORD
22 1
Ti      3.77713597     6.60098803     0.92453002     0.19314725    -0.32002122     1.45825826
Ti      3.88355701     2.88060700     1.20842499     0.97646703     2.07328668     1.40121318
Ti      0.11584399     6.49848401     1.28467800    -0.68487400     0.65263570     0.10558213
Ti      0.04842199     2.83589200     1.08921400    -1.59093392     0.96298262     0.58579445
Ti      5.73420421     2.92476123     3.66896479    -0.72702623    -1.15046599    -1.39344561
Ti      6.03222922    -1.02551477     3.78674880    -0.08519276     2.64950788     0.09402116
Ti      1.89855324     2.58305222     3.43139781    -0.07888045     0.50349675     0.55197749
Ti      1.44629524    -0.71211076     3.91521583     0.74206847    -1.31423607    -3.01898942
O       4.00254500     4.81736002     0.46110802    -1.02200772    -0.55441155     0.59530625
O       3.75184998     1.11613499     0.84091102    -0.70788924    -1.61669536     1.80935333
O      -0.31887401     4.80522699     0.88524300     0.93924156     0.41517289    -0.67589056
O      -0.11399298     1.08846802     0.79033199     0.39718725    -1.00028600     0.93099474
O       5.35870824     5.00164922     4.35207780     0.51829011    -3.22723626    -1.57253047
O       5.71993722     1.10494824     3.94715581    -0.24691264    -1.76621020     1.22677096
O       1.90446823     5.03238622     4.00578383    -0.32309626    -0.28569775    -0.20099375
O       2.45924422     0.83667723     3.97960681    -1.35029066    -0.38545196    -0.42474640
O       3.77652123     2.71678923     3.20557380     0.66669990     1.43191036    -1.23189131
O      -0.09233577     2.35796123     3.05556882     2.08993972     1.64568121     1.51200951
O       5.44253198     6.54446899     2.11727898    -0.68036763     0.43868641    -2.14791323
O       5.74346698     3.08340899     1.70307998    -1.47365661    -0.02714366     0.13910110
O       1.94462199     6.38769499     1.66635699     0.21032120     1.15756507     0.16753572
O       1.76979701     3.20704099     1.58187098     2.23776561    -0.28306956     0.08848326
