# total energy = -19907.35209413 eV

CRYSTAL
PRIMVEC
        6.61762097     0.00000000     0.00000000
        1.05059883     6.96435219     0.00000000
        0.00000000     0.00000000    11.87772237
PRIMCOORD
24 1
Ti      3.02115318     4.12706859     4.40655032    -0.18670638    -1.50525496     0.66433679
Ti      4.64706654     2.83728341     7.47117232     0.18670638     1.50525496    -0.66433679
Ti      6.13528589     2.83728576     1.53226350     0.23260882     0.15871194    -0.46912674
Ti      1.53293385     4.12706651    10.34545927    -0.23260882    -0.15871194     0.46912674
Ti      2.49585391     0.64489262     1.53231113    -0.18670638    -1.50525496    -0.66433679
Ti      5.17236582     6.31945958    10.34541164     0.18670638     1.50525496     0.66433679
Ti      1.00763454     0.64489007     7.47112468    -0.23260882    -0.15871194    -0.46912674
Ti      6.66058519     6.31946213     4.40659795     0.23260882     0.15871194     0.46912674
O       2.46445250     2.45226671     6.06111086     1.66870751     1.75766102    -0.38674831
O       5.20376722     4.51208528     5.81661171    -1.66870751    -1.75766102     0.38674831
O       1.58426829     2.45229487     0.12228780    -1.06057556     0.67928082     0.50532043
O       6.08395150     4.51205719    11.75543450     1.06057556    -0.67928082    -0.50532043
O       4.67846793     1.02990911     0.12224928    -1.66870751    -1.75766102    -0.38674831
O       2.98975179     5.93444289    11.75547302     1.66870751     1.75766102     0.38674831
O       5.55865221     1.02988102     6.06114946     1.06057556    -0.67928082     0.50532043
O       2.10956745     5.93447105     5.81657318    -1.06057556     0.67928082    -0.50532043
O       0.87946723     4.23611378     3.20846919     0.49214944     0.81805437     1.14887165
O       6.78875249     2.72823815     8.66925344    -0.49214944    -0.81805437    -1.14887165
O       3.96081230     2.72817338     2.73042991     0.54172958     1.19641908     0.42597282
O       3.70740741     4.23617856     9.14729253    -0.54172958    -1.19641908    -0.42597282
O       0.35416794     0.75393761     2.73039192     0.49214944     0.81805437    -1.14887165
O       7.31405178     6.21041432     9.14733044    -0.49214944    -0.81805437     1.14887165
O       3.18210813     0.75400238     8.66929130    -0.54172958    -1.19641908     0.42597282
O       4.48611159     6.21034955     3.20843127     0.54172958     1.19641908    -0.42597282
