# total energy = -19935.06452292 eV

CRYSTAL
PRIMVEC
        4.78879878     0.00000000     0.00000000
        1.49539702     4.87241667     0.00000000
        0.00000000     0.00000000     8.67116634
PRIMCOORD
24 1
Ti      2.62188010     2.88738963     3.21694087     3.56790832    -2.08374490     0.87943665
Ti      3.66231563     1.98502715     5.45422552    -3.56790832     2.08374490    -0.87943665
Ti      4.73925622     1.98502882     1.11860768    -6.59960157     0.80359319     2.57901566
Ti      1.54493958     2.88738814     7.55255880     6.59960157    -0.80359319    -2.57901566
Ti      1.87418170     0.45118138     1.11864245     3.56800166    -2.08332581    -0.88814806
Ti      4.41001405     4.42123554     7.55252404    -3.56800166     2.08332581     0.88814806
Ti      0.79724108     0.45117956     5.45419076     6.59951673    -0.80395469     2.59408747
Ti      5.48695467     4.42123736     3.21697563    -6.59951673     0.80395469    -2.59408747
O       2.04223974     1.71566077     4.42482981    -2.03973223    -0.84646635    -1.02328427
O       4.24195599     3.15675605     4.24633658     2.03973223     0.84646635     1.02328427
O       1.40530308     1.71568043     0.08927453     1.91056150    -0.98619275    -1.03297836
O       4.87889271     3.15673644     8.58189161    -1.91056150     0.98619275     1.03297836
O       3.49425757     0.72054766     0.08924640     2.03975717     0.84723691    -1.02305107
O       2.78993816     4.15186917     8.58191975    -2.03975717    -0.84723691     1.02305107
O       4.13119429     0.72052804     4.42485795    -1.91047485     0.98603900    -1.03273128
O       2.15300141     4.15188884     4.24630844     1.91047485    -0.98603900     1.03273128
O       1.08357338     2.96368006     2.34229836    -0.64584850    -2.69043548    -3.01753932
O       5.20062235     1.90873677     6.32886803     0.64584850     2.69043548     3.01753932
O       3.15419486     1.90869133     1.99331241     1.69049967    -3.15702275    -3.34079164
O       3.13000088     2.96372549     6.67785383    -1.69049967     3.15702275     3.34079164
O       0.33587491     0.52747167     1.99328472    -0.64604673    -2.69062960     3.01791907
O       5.94832078     4.34494516     6.67788153     0.64604673     2.69062960    -3.01791907
O       2.38230245     0.52751710     6.32889568    -1.68959850     3.15655661    -3.34112203
O       3.90189328     4.34489973     2.34227066     1.68959850    -3.15655661     3.34112203
