# total energy = -39036.15361379 eV

CRYSTAL
PRIMVEC
        7.60600008     0.00000000     0.00000000
        0.00000000     7.60600008     0.00000000
       -3.79573973    -3.79573973     9.71340985
PRIMCOORD
46 1
Ti      1.87311845     4.82961343     6.21341263    -0.27053980     0.34646322     0.06321137
Ti      3.77027202     6.67354098     1.31701899    -0.33172720     0.79383842    -1.34850863
Ti      1.83207847     0.77441042     6.00874465     0.10819386    -0.10567418     1.94778800
Ti      3.70915099     2.78355002     1.14116899     0.00674915    -1.20084832     0.30305090
Ti     -1.95600353     4.62484147     6.12685362     1.20556655     0.97785260    -1.13406543
Ti     -0.04582998     6.73677602     1.27798301     0.39155576    -0.46048063     0.00218904
Ti     -1.85550256     1.07319644     6.08189160     0.45382764    -2.74592788    -0.97894995
Ti      0.08787300     2.95402801     1.10595802    -0.69298224     0.34206535    -0.17285841
Ti      3.91705245     1.07310045     8.35775664    -1.14756064    -0.72186705     1.44121467
Ti      5.62433299     2.84533702     3.32152600     0.66195287    -0.20538083     2.38080950
Ti      3.83895843    -2.86427453     8.52668865     0.48594536     0.76089924     0.42221643
Ti      5.64265602    -0.94916502     3.71017801     1.15436558     0.55806458     0.66933451
Ti      0.09237244     0.98083644     8.48786561     0.49037846     0.90128178    -0.32160193
Ti      1.89576803     2.73936499     3.51871798    -0.94125216    -0.03952378    -0.60355692
Ti      0.00234246    -2.86109454     8.51355060    -0.11357904    -0.81623403     1.70553549
Ti      1.92792999    -1.17166400     3.65809602    -1.11459035     0.17135560     0.78671698
O       1.55584345    -1.00138957     5.81425862     0.78338123    -1.07802050    -1.25461653
O       3.57171402     0.90784400     1.05878297     0.31536032     1.16349712    -1.70307288
O      -1.96198556     2.73679043     5.63440260    -0.14041057     4.08620795    -0.04054066
O      -0.11324801     4.80830902     0.71804299    -0.09360387    -0.38091525    -0.18727151
O      -1.62692254    -0.92159954     5.75640060    -1.03375200    -0.49092636    -1.25184643
O       0.10041302     1.00495798     0.93445701    -0.51444785    -0.84634808    -1.03889344
O       3.89242645     2.88023245     8.91282362    -0.51947307     0.10090092    -0.35981394
O       5.50359400     4.79271300     4.07092301     0.37850226    -0.76754785    -0.12707322
O      -3.44472757    -1.04273356     8.88906362    -0.62150014     1.07301636    -0.24553479
O       5.67433802     1.08338802     4.00074998     0.03734632    -1.19607481    -0.44117138
O       0.14019144     2.86615146     9.06203663     0.31164199    -0.60711661    -0.25474191
O       1.88246499     4.41402498     4.26991901     0.41109795     1.44284424    -0.04143411
O      -0.02917153    -0.85544556     9.03349863    -0.03635541    -0.42091160    -1.66780582
O       1.92361598     0.95032402     4.22946901     0.04441248     0.79447734    -1.83932906
O       1.89764544     0.88368643     8.13176964     0.58715353     0.03680510     0.08446771
O       3.70508997     2.77038102     3.03087598     0.93301409     0.51724238     1.92982524
O       1.94309547    -2.68259157     8.18566963     0.41345514    -0.52106047    -0.03614715
O       3.77455602    -0.77416600     3.25005702    -1.02475674    -1.08143313     1.12926055
O      -1.83869356     1.02316442     7.97860061    -0.67906922     0.08337756     0.83839540
O       0.04741799     2.86790198     3.11412498    -1.29105371    -0.04138963    -0.08675779
O      -1.77471958    -3.13970155     8.07424162    -2.11964549     0.66854132     0.34351494
O       0.03689403    -0.92705700     3.23965398     0.22855624    -0.44004113    -0.12983844
O       3.84137143     4.83023447     6.46865265    -0.89450255    -0.36084341     0.66646695
O       5.65365899     6.82909999     1.68748000     0.83968018    -0.80236266     0.20692323
O       3.68385843     0.99589746     6.43184663     1.21405428     0.19018149     0.32893986
O       5.59466297     2.93452101     1.51163302     1.07910062     0.17755042    -0.71461062
O      -0.00059353     4.60423446     6.65109661     1.16786748    -0.39157659    -1.45672948
O       1.89030602     6.49629798     1.40553902    -0.02953402    -0.53927469     1.91861934
O       0.06925046     1.15332245     6.46059063    -0.32355340     0.62838196    -0.06506256
O       1.87570898     3.02536502     1.50563601     0.23072985     0.44693374     0.33335213
