# total energy = -19955.83329282 eV

CRYSTAL
PRIMVEC
        5.16387420     0.00000000     0.00000000
        1.35286923     5.32681160     0.00000000
        0.00000000     0.00000000     9.31639270
PRIMCOORD
24 1
Ti      2.67336514     3.15666378     3.45631542     1.40658987    -1.81996222     0.90809032
Ti      3.84337844     2.17014817     5.86007781    -1.40658987     1.81996222    -0.90809032
Ti      5.00466869     2.17015001     1.20184400    -2.60093689    -0.37545011     1.08403149
Ti      1.51207491     3.15666214     8.11454934     2.60093689     0.37545011    -1.08403149
Ti      1.99693064     0.49325802     1.20188135     1.40658987    -1.81996222    -0.90809032
Ti      4.51981297     4.83355414     8.11451198    -1.40658987     1.81996222     0.90809032
Ti      0.83564030     0.49325597     5.86004045     2.60093689     0.37545011     1.08403149
Ti      5.68110330     4.83355613     3.45635277    -2.60093689    -0.37545011    -1.08403149
O       2.11076705     1.87566103     4.75408411     0.15911663     0.73138065    -0.74989388
O       4.40597648     3.45115092     4.56230912    -0.15911663    -0.73138065     0.74989388
O       1.42394225     1.87568253     0.09591751     0.48594408    -0.61897120     0.34436391
O       5.09280139     3.45112951     9.22047546    -0.48594408     0.61897120    -0.34436391
O       3.72954195     0.78774501     0.09588728    -0.15911663    -0.73138065    -0.74989388
O       2.78720163     4.53906694     9.22050568     0.15911663     0.73138065     0.74989388
O       4.41636686     0.78772355     4.75411433    -0.48594408     0.61897120     0.34436391
O       2.10037668     4.53908846     4.56227889     0.48594408    -0.61897120    -0.34436391
O       1.01050725     3.24006889     2.51659024    -0.13880440    -0.07410076    -0.29811952
O       5.50623628     2.08674306     6.79980299     0.13880440     0.07410076     0.29811952
O       3.29952778     2.08669338     2.14163603     1.10616664    -0.42546965    -0.91059766
O       3.21721580     3.24011862     7.17475704    -1.10616664     0.42546965     0.91059766
O       0.33407272     0.57666298     2.14160627    -0.13880440    -0.07410076     0.29811952
O       6.18267086     4.75014902     7.17478680     0.13880440     0.07410076    -0.29811952
O       2.54078127     0.57671265     6.79983269    -1.10616664     0.42546965    -0.91059766
O       3.97596231     4.75009930     2.51656048     1.10616664    -0.42546965     0.91059766
