# total energy = -4986.44583697 eV

CRYSTAL
PRIMVEC
        3.79158682     0.00000000     0.00000000
        0.00000000     3.96056540     0.00000000
        0.00000000    -0.00006922     5.15698574
PRIMCOORD
6 1
Ti      1.89579324     1.98024803     2.57849281     0.00000000     0.00000000     0.00000000
Ti      0.00000000     0.00000000     0.00000000     0.00000000     0.00000000     0.00000000
O       1.89579324     0.77184236     1.00502054     0.00000000     0.34353448     0.77141865
O       1.89579324     3.18865371     4.15196503     0.00000000    -0.34353448    -0.77141865
O       0.00000000     1.20837798     3.58351448     0.00000000    -0.34378336     0.77112889
O       0.00000000     2.75211809     1.57347114     0.00000000     0.34378336    -0.77112889
