# total energy = -19953.77141622 eV

CRYSTAL
PRIMVEC
        5.93400000     0.00000000     0.00000000
        0.00000000     9.29699974     0.00000000
        0.00000000     0.00000000     4.64899994
PRIMCOORD
24 1
Ti      4.43195102     6.77875401     2.60888898     2.11191418     3.53502416    -2.76006587
Ti      4.36969400     2.46443899     2.19958202     2.82516237     0.61417584     0.25941798
Ti      1.58495402     6.19404897     2.25198300    -2.19593477     5.55736570    -0.31737246
Ti      1.52737499     2.55273899     2.25613900    -2.75749914    -1.14645404     1.19630646
Ti      3.01484599     4.57212102     0.10226102     3.03915999     2.35091913    -1.36857044
Ti      2.74418198     0.46097599     4.52885798     1.40577817    -4.10325257    -3.24033423
Ti      0.04308498     4.38848800     4.61557499    -1.83518495     1.62822084    -0.64634421
Ti      5.82585702     0.40524902     4.53245400    -0.57500070    -3.59415133    -1.57614647
O       4.46963399     5.36773499     1.02634499    -0.04051726    -0.39416286    -0.86622220
O       4.28918698     1.11803199     0.90057797     1.73833918     0.21433212    -1.06408923
O       1.44237700     5.41678099     0.61367903     0.46823714     0.37950191     1.09571613
O       1.54671102     1.36419302     0.76947902    -2.08792577    -0.31374746    -0.04128833
O       4.59607000     8.51048497     3.85866298     0.09081037     0.51766430     0.22092289
O       4.48016901     3.71711299     3.74151002    -1.20368450    -0.99089170     0.46476152
O       1.54650702     8.72070101     3.62713603     0.14272456     1.56276825     2.61950078
O       1.63044702     3.61123102     3.75377100    -0.50120872    -0.16198187     0.85631934
O       3.04109201     6.01391498     3.47566899    -0.69945602    -1.83281440     1.59412389
O       3.03012100     1.53689499     2.85920802    -1.48941619    -2.34352463     3.92720264
O       0.00948503     5.83414299     3.30303099     0.41329085    -1.98734495     1.74961475
O       5.84912600     1.54097500     3.09005700     0.33890109    -0.25362528     0.54925906
O       2.98873702     7.36121698     1.60739003    -0.01068885     0.93067336    -0.51207652
O       2.89413901     3.44963802     1.56188697     0.72833646     0.83006322    -0.46443705
O       0.25819198     7.47995901     1.70905000    -0.26470777    -0.02308980    -0.16867163
O       0.03350798     3.55705899     1.71466399     0.35857055    -0.97566793    -1.50752653
