# total energy = -19961.32620877 eV

CRYSTAL
PRIMVEC
        5.43454029     0.00000000     0.00000000
        0.00002705     5.23313754     0.00000000
        0.00000000     0.00000000     9.28667550
PRIMCOORD
24 1
Ti      1.96977553     3.10115241     3.44529046    -0.11673815     0.33943177    -0.59674324
Ti      3.46479181     2.13198502     5.84138536     0.11673815    -0.33943177     0.59674324
Ti      4.68695096     2.13198682     1.19801036    -0.11485739    -0.33961920     0.59742124
Ti      0.74761643     3.10115088     8.08866562     0.11485739     0.33961920    -0.59742124
Ti      1.96976206     0.48458375     1.19804761    -0.11686105     0.33145646     0.59563329
Ti      3.46480533     4.74855385     8.08862836     0.11686105    -0.33145646    -0.59563329
Ti      0.74760291     0.48458184     5.84134816     0.11458305     0.33125925     0.59682346
Ti      4.68696443     4.74855581     3.44532771    -0.11458305    -0.33125925    -0.59682346
O       1.72007585     1.84267663     4.73891954     0.30425443    -0.15768042     0.28685217
O       3.71449153     3.39046081     4.54775627    -0.30425443     0.15768042    -0.28685217
O       0.99724518     1.84269779     0.09561153    -0.30482213    -0.15771230     0.28698613
O       4.43732226     3.39043970     9.19106407     0.30482213     0.15771230    -0.28698613
O       3.71447801     0.77389199     0.09558142    -0.30430097     0.15740094     0.28683880
O       1.72008938     4.45924545     9.19109418     0.30430097    -0.15740094    -0.28683880
O       4.43730873     0.77387088     4.73894971     0.30418964     0.15784600     0.28674059
O       0.99725855     4.45926661     4.54772616    -0.30418964    -0.15784600    -0.28674059
O       0.19746596     3.18309092     2.50856280     0.25087934    -0.13483976     0.20327432
O       5.23710143     2.05004657     6.77811302    -0.25087934     0.13483976    -0.20327432
O       2.91474092     2.04999786     2.13480464     0.25088860     0.13511666    -0.20401583
O       2.51982642     3.18313963     7.15187107    -0.25088860    -0.13511666     0.20401583
O       0.19745244     0.56652210     2.13477495     0.25026716    -0.13498348    -0.20413615
O       5.23711490     4.66661539     7.15190070    -0.25026716     0.13498348     0.20413615
O       2.51981295     0.56657080     6.77814265    -0.25113234    -0.13477085    -0.20347949
O       2.91475444     4.66656663     2.50853316     0.25113234     0.13477085     0.20347949
