# total energy = -19960.51497284 eV

CRYSTAL
PRIMVEC
        5.93400000     0.00000000     0.00000000
        0.00000000     9.29699974     0.00000000
        0.00000000     0.00000000     4.64899994
PRIMCOORD
24 1
Ti      4.44229998     7.05808800     2.37899200    -0.45897808    -0.83890294    -0.56807466
Ti      4.42413300     2.25388201     2.40314899     0.28555119     0.23903066    -0.03397843
Ti      1.48653700     6.91027001     2.33813502     0.64432255     0.80804866     0.66787618
Ti      1.48354800     2.37956600     2.15636099    -1.04769947    -0.42305204     0.00029413
Ti      2.92195098     4.62704898     0.02161700     2.65369981     0.78275542    -0.13721031
Ti      2.97730298     9.28652002     4.59860798    -0.40556211    -0.28003232    -0.06391893
Ti      0.06920099     4.68764100     4.58759998    -1.96081707    -0.23159915     0.49068339
Ti      5.92491900     0.02465601     0.05923801    -0.13235555    -0.19267417    -0.26258635
O       4.33480402     5.61439901     0.97282602     0.62513620    -0.59691216    -0.31689090
O       4.46568199     1.01534901     0.80326302     0.03249259    -0.51585527     0.29954263
O       1.51519899     5.43998600     1.03831101    -0.56416426     0.42158677    -0.34137218
O       1.43396800     0.86416502     0.82577300     1.09753004     1.48436860     0.94449998
O       4.52081999     8.44860002     3.81422701    -0.65325971    -1.19098736    -0.69163241
O       4.39307501     3.78560302     3.61735900     0.45514096    -0.00487430     0.97194755
O       1.57379097     8.24964102     3.85671899    -0.49104823     0.52878973    -0.13572370
O       1.48467901     3.80428197     3.70879998    -0.38801869    -0.70454989    -0.46446147
O       2.98360601     6.07917200     3.32202698    -0.19544762    -0.02942654    -0.26723259
O       2.93524497     1.21273201     3.15740099    -0.13950220     1.49663199    -0.47248100
O       0.02984703     6.12134399     3.34440101    -0.09604565     0.01703408    -0.29106158
O       5.85993302     1.40315798     3.09881800     1.48447915    -0.39553249     0.70964685
O       2.98651601     7.95525897     1.67290302    -0.16719787     0.27188603    -1.33755058
O       3.00708401     3.12491999     1.38491798    -1.04753004     0.44140767    -0.38631199
O       0.01684800     7.88930200     1.36720700     0.00060550    -0.66956822     1.26882163
O       0.00208898     3.25151199     1.33707300     0.46866831    -0.41757276     0.41717501
