# total energy = -19945.19014042 eV

CRYSTAL
PRIMVEC
        5.73085756     0.00000000     0.00000000
        1.78957348     5.83092486     0.00000000
        0.00000000     0.00000000    10.37696956
PRIMCOORD
24 1
Ti      3.13765979     3.45540070     3.84978169     0.43666630    -2.35412427     0.95268561
Ti      4.38277116     2.37552429     6.52718792    -0.43666630     2.35412427    -0.95268561
Ti      5.67156892     2.37552630     1.33866165    -1.17321358    -0.66062052     0.31729559
Ti      1.84886212     3.45539892     9.03830808     1.17321358     0.66062052    -0.31729559
Ti      2.24287318     0.53993837     1.33870326     0.43666630    -2.35412427    -0.95268561
Ti      5.27755780     5.29098680     9.03826647    -0.43666630     2.35412427     0.95268561
Ti      0.95407539     0.53993619     6.52714632     1.17321358     0.66062052     0.31729559
Ti      6.56635558     5.29098898     3.84982330    -1.17321358    -0.66062052    -0.31729559
O       2.44399182     2.05316781     5.29528814     1.51093967     1.90582373    -0.78948092
O       5.07643914     3.77775724     5.08168148    -1.51093967    -1.90582373     0.78948092
O       1.68175614     2.05319133     0.10683674    -0.26919769    -0.34713119     1.02684525
O       5.83867488     3.77773377    10.27013259     0.26919769     0.34713119    -1.02684525
O       4.18165250     0.86229474     0.10680307    -1.51093967    -1.90582373    -0.78948092
O       3.33877845     4.96863032    10.27016625     1.51093967     1.90582373     0.78948092
O       4.94388824     0.86227126     5.29532180     0.26919769     0.34713119     1.02684525
O       2.57654267     4.96865386     5.08164781    -0.26919769    -0.34713119    -1.02684525
O       1.29673535     3.54669909     2.80307836     0.39043142     1.49616431     1.43882560
O       6.22369560     2.28422597     7.57389125    -0.39043142    -1.49616431    -1.43882560
O       3.77469221     2.28417160     2.38543945     1.01547711     1.22801255     0.40346589
O       3.74573875     3.54675346     7.99152999    -1.01547711    -1.22801255    -0.40346589
O       0.40194866     0.63123659     2.38540630     0.39043142     1.49616431    -1.43882560
O       7.11848224     5.19968847     7.99156314    -0.39043142    -1.49616431     1.43882560
O       2.85095212     0.63129095     7.57392434    -1.01547711    -1.22801255     0.40346589
O       4.66947884     5.19963410     2.80304522     1.01547711     1.22801255    -0.40346589
