# total energy = -4988.73510275 eV

CRYSTAL
PRIMVEC
        3.98029377     0.00000000     0.00000000
        1.16780402     3.80512448     0.00000000
       -2.57408482    -1.90258879     5.13917289
PRIMCOORD
6 1
Ti      0.87573121     2.85398923     1.28479292    -0.00013807     0.00013807     0.00000000
Ti      1.69828151    -0.95145373     3.85437921     0.00013807    -0.00013807     0.00000000
O       0.29199264     0.95127584     0.83712913    -0.00055510    -0.00073096    -1.19995717
O       2.28201991     0.95125958     4.30204300     0.00055510     0.00073096     1.19995717
O      -0.29196198    -0.95125319     3.40671541    -0.00073096    -0.00055510    -1.19995717
O       2.86597451     2.85378850     1.73245677     0.00073096     0.00055510     1.19995717
