# total energy = -19516.78354230 eV

CRYSTAL
PRIMVEC
        5.17600016     0.00000000     0.00000000
        0.00000000     5.50899976     0.00000000
        0.00000000     0.00000000     9.26300011
PRIMCOORD
23 1
Ti      1.86530398     3.16290401     3.36422098    -0.32112885    -0.25098810     3.38088441
Ti      3.39130099     2.31011900     5.95617999    -0.26094933    -0.72485261    -3.45210914
Ti      4.39110298     2.05010897     1.51591602    -0.92633873     1.09268788    -2.25094972
Ti      0.85047701     3.46076201     7.77572601    -0.84690833    -0.28325520     1.81380725
Ti      1.95246201     0.21478701     1.34959598     0.87341255     0.16248761    -1.13645424
Ti      3.36360401     5.05152301     7.92563801    -0.48475340     1.17088081     1.49622987
Ti      0.68082802     0.68059000     5.86808500     0.70362095    -0.81951964    -3.25484683
Ti      4.50089599     4.91857501     3.34315501     0.87302920    -1.06895016     4.18368725
O       1.75448802     1.79322702     4.72961999    -0.22971324     0.90470829    -0.16412643
O       3.52849897     3.50710799     4.48162102    -0.08511974     0.15484860    -0.04517301
O       4.81954001     3.04621000     9.24864601    -0.01968206    -0.34336658    -0.13768005
O       3.62639502     0.60680300     0.43753301    -0.69204224    -1.04238294    -2.26141771
O       1.81108300     4.48739900     9.11135399     0.34838486     0.88681700     0.20032706
O       4.28908999     0.91702200     4.89222701    -0.15348412    -0.84123724    -1.42034322
O       0.89812000     4.74427101     4.40408698    -0.00104541    -0.49720526     0.33036914
O       0.15136602     3.32127502     2.54773800     0.01393616     0.23379127    -0.16890020
O       5.03699202     2.09816001     6.82590100     0.65902541     0.15000464     1.14783061
O       2.54343198     2.03124201     1.99915100    -0.19348587    -0.09125491     0.02812531
O       2.55986600     3.69446499     6.89083799    -0.52532722    -0.32067916     0.77085507
O       0.17771502     0.58854702     2.20050999     1.53337667     0.73524682    -1.13775419
O       5.06537301     4.71978597     6.89282298    -0.56404625     0.69647585     1.15943246
O       2.47772002     0.85768101     6.87153699    -0.09761428    -0.61553030     1.68518700
O       2.74009800     4.63988301     2.53531699     0.39685301     0.71127333    -0.76698067
