# total energy = -4987.70551087 eV

CRYSTAL
PRIMVEC
        4.18346303     0.00000000     0.00000000
       -0.00000931     4.18346303     0.00000000
       -2.09176433    -2.09176898     5.33902925
PRIMCOORD
6 1
Ti     -0.00018423     3.13775573     1.33475717    -0.00113026     0.00113026     0.00000000
Ti      2.09187351    -1.04606179     4.00427173     0.00113026    -0.00113026     0.00000000
O       0.00004179     1.04585865     0.86968418    -0.00048877    -0.00187099    -1.01568151
O       2.09164737     1.04583517     4.46934478     0.00048877     0.00187099     1.01568151
O      -0.00002363    -1.04584049     3.53919874    -0.00187099    -0.00048877    -1.01568151
O       2.09171273     3.13753425     1.79983021     0.00187099     0.00048877     1.01568151
