# total energy = -39025.52845166 eV

CRYSTAL
PRIMVEC
        7.60600008     0.00000000     0.00000000
        0.00000000     7.60600008     0.00000000
       -3.79573973    -3.79573973     9.71340985
PRIMCOORD
46 1
Ti      1.85653345     4.52601047     6.21680561     0.44485372    -3.94741075    -1.06957340
Ti      3.96326598    -0.23486400     1.15416802    -0.80275733    -0.18174132    -2.11894255
Ti      1.86597344    -0.21483258     6.34614865     1.16795001     3.67453510    -2.60172082
Ti      3.80107802     3.33837099     1.35125099    -0.32388970    -1.41865992    -2.48260568
Ti     -1.92024655     4.50286945     6.28256461    -2.02475580    -2.54501718    -0.14427545
Ti      0.06728801     6.76409702     1.31870399     0.35770383     1.02423481    -0.60325893
Ti     -1.69809355     0.58075743     6.00842963    -2.28966463     0.16325046     1.87810825
Ti     -0.05611999     3.18689400     1.29754701     0.75662632    -0.86062002    -1.56186399
Ti      3.45220447     1.51217543     8.46017064     1.42720884    -2.64646755     0.09540030
Ti      5.66205798     2.54520298     3.61261101     2.31170465     1.18681009     2.13881230
Ti      3.79721047    -2.49122055     8.51302365     1.90460451     3.19693348     2.89427468
Ti      5.65658798    -1.25850601     3.73602202     1.25086838    -0.92763945    -2.66472084
Ti     -0.20282454     1.35758143     8.22994763    -0.73019125    -0.19356403     1.37523037
Ti      2.08534900     2.18825101     3.34377801    -1.78244930     1.17032726     2.27322216
Ti      0.16640545    -2.09063353     8.29230064    -3.72984752    -1.02753867     2.90813961
Ti      2.19621402     6.28716401     3.36704498    -2.07754828     1.73036875    -0.33149682
O       2.34259646    -1.82154753     5.13392962     0.22261725     1.52442383     0.14618887
O       3.42622499     1.60985398     0.69104998     2.47794633    -2.04599235    -0.04530414
O      -2.14534553     2.28441945     5.67912162     0.76422882     1.75196346     0.16069478
O       0.14036199     4.98712002     0.69759098     0.54251171     2.11343678     0.47893448
O      -2.04463654    -1.46922454     5.53403762     0.03178502     4.09073309     1.54826259
O       0.24629603     1.25877297     0.77200103    -0.04064916     2.35509075     1.34473990
O       3.30711746     3.46023045     9.19849361    -0.19882502    -2.99321333    -2.01266853
O       5.25060600     4.26859601     4.40400802     1.11876248    -0.13700514    -2.34809426
O       3.47160845    -0.37307356     8.92151663     0.67911961    -3.66085785     1.45432859
O       5.72082597     0.59086598     4.06064703     0.51922085    -0.43103044    -0.91898846
O      -0.18235056     3.00731246     9.01913163     0.69563202     0.98463440     0.78508973
O       2.12035403     3.41656200     4.72075098    -0.50415881    -1.41743067     0.42288775
O      -0.33579255    -0.38898153     8.82635961     1.80982821    -0.04793875     1.55413114
O       2.08875198     0.29843200     4.29033202    -0.28058922     2.38121419    -0.95986644
O       1.71536145     1.29402047     8.24949163    -0.85381508     0.51525261    -0.32853800
O       3.96413700     2.41676102     3.22795101    -2.17959849    -0.72055347    -1.51402654
O       1.78703745    -1.57616857     7.50755862     0.33542393    -1.28348412     2.14834724
O       3.96249502    -1.13861598     2.93814899     0.75924396    -0.60719220     0.13559283
O      -2.11661354     0.80942846     7.96023864     0.66055393     2.10638425    -1.86139556
O       0.16503202     2.83203303     3.21216401    -1.77060550    -1.07527354    -0.59960488
O      -1.88953956    -2.47480854     8.11576261    -1.03735129     0.04475958     0.09028381
O       0.30276199     6.35624699     3.16097400    -1.42950123    -0.66040738     0.35035536
O       3.71632742     4.38550344     6.87618660    -0.70811627    -1.22192469    -1.70231724
O       5.86524802     6.62147301     1.56628401    -1.35603451     0.86473585     0.84048134
O       3.40965143     0.52433147     6.69638265     0.18684085     0.41954557    -1.40102060
O       5.64097302     3.28055901     1.50810299     1.67692347    -0.08581343     1.36382367
O      -0.15128453     4.70873146     6.49881263     3.28138165    -0.67080775    -0.25230142
O       2.15123702     7.02166902     1.39363898    -0.66088303    -0.75632396     1.39510320
O       0.08855443     0.72958943     6.41620764     0.56694851    -0.38649248    -1.12664985
O       2.04984798     3.43139601     1.74743102    -1.16925742     0.65176667     0.86680199
