# total energy = -19960.33232968 eV

CRYSTAL
PRIMVEC
        5.93400000     0.00000000     0.00000000
        0.00000000     9.29699974     0.00000000
        0.00000000     0.00000000     4.64899994
PRIMCOORD
24 1
Ti      4.45458297     7.03932099     2.45606899     0.17643739    -2.08269718    -0.56720459
Ti      4.48333900     2.38439400     2.42745199     0.21482706    -1.03440481    -1.15233930
Ti      1.47306500     6.96541001     2.21866801    -0.64827408    -0.89236776     0.52467159
Ti      1.54837703     2.31934102     2.26492202     0.13312663    -0.30932748    -0.11547137
Ti      2.95449898     4.54043902     0.00463702    -0.95922855     1.94987985    -0.35268864
Ti      2.97558902     9.22297102     4.60576098     0.75134270     0.94958820     1.55565349
Ti      5.83428697     4.65414498     0.11226601     0.86900722     1.90146956    -0.52282734
Ti      0.04338698     9.29149000     4.53577401    -0.78133489     0.73913047     1.81942537
O       4.46049600     5.62828499     0.94043799    -0.04400008    -0.87393731    -0.64165786
O       4.42028102     0.99479301     0.79892202    -0.28667117    -0.93973753    -0.04887875
O       1.49150402     5.52507998     0.96119100     0.07229713     0.23543009    -0.10109967
O       1.51823398     1.00596198     0.79340900    -0.22709971    -0.37051924     0.31330498
O       4.45977801     8.43976398     3.70669899    -0.31056238     0.29404149     0.88732017
O       4.46123500     3.80652801     3.69306400    -0.16743441    -0.61847215    -0.03155233
O       1.38768902     8.27861998     3.80765998     1.02393759     0.38116619     0.07946794
O       1.50458300     3.72186399     3.85141299    -0.17016647    -0.68323492    -1.43463907
O       3.00371300     6.11585600     3.38872098    -0.56307232     0.11570328    -0.96206474
O       2.99741399     1.43560099     3.13902103    -0.88975346    -0.34900167     0.26644506
O       5.91919902     5.98474699     3.09973401     0.28541647     0.33876611     1.04692043
O       0.04022297     1.31914300     3.18369999     0.00637145     1.41214037    -1.07830487
O       2.98060102     7.91826298     1.48095598    -0.52408589     0.46732491    -0.82032774
O       3.00801002     3.13904500     1.32849700    -0.25846513     0.44247082     0.99271050
O       5.84637598     7.95838001     1.55452099     1.34936198     0.39619197    -1.15369864
O       5.80044699     3.30810501     1.34920402     0.94802291    -1.46960326     1.49683485
