# total energy = -19961.09898015 eV

CRYSTAL
PRIMVEC
        5.93400000     0.00000000     0.00000000
        0.00000000     9.29699974     0.00000000
        0.00000000     0.00000000     4.64899994
PRIMCOORD
24 1
Ti      4.45566800     6.93957198     2.23023303    -0.45767993    -0.26471085     0.79541374
Ti      4.44681598     2.26312599     2.28663300     0.29597574     0.86979064     0.24429089
Ti      1.49336900     7.01071399     2.39644501     0.42773248    -1.22204296    -0.15558085
Ti      1.46402199     2.30585002     2.29614099    -0.15338410     0.92243117     0.45663298
Ti      2.99116499     4.65637498     4.63643098    -1.22531186    -0.84997925     0.07676571
Ti      2.97308099     0.03513800     4.64613598     0.34630998     0.23743349    -0.27453221
Ti      5.90827098     4.64933999     4.61572898     1.11670019    -0.72268800    -0.08166341
Ti      5.93050500     9.23936599     0.07352902    -0.46154070     0.87722216    -0.71037190
O       4.50410201     5.52378201     0.97021299    -0.06635326     0.33267979    -0.46582956
O       4.43235499     0.89540701     0.88832900    -0.00607860    -0.10889397     0.52117129
O       1.49323400     5.55866903     0.93168100    -0.24967426    -0.07707193    -0.17336261
O       1.48193099     0.99813302     0.96325902    -0.01074619    -1.22309582    -0.73212730
O       4.42477802     8.40854300     3.78499299     0.02510683     0.00111972    -0.00465061
O       4.45460599     3.73750002     3.71944200     0.41416168     0.72227303     0.44056666
O       1.45884902     8.52095702     3.78547602     0.28873808    -1.02583840    -0.64776397
O       1.54827997     3.75489503     3.67809902    -0.61826518     0.66919695     0.70838058
O       3.03116401     6.03512699     3.22187002    -0.32529738     0.86988397    -0.07932010
O       3.01498601     1.48460699     3.19955800    -0.81771241    -1.06191485     0.89134883
O       5.88320301     6.15204299     3.25159100     0.24998460    -0.55556932     0.52011122
O       5.89967201     1.43159200     3.31983301     0.31945660     0.07282910    -0.64763799
O       2.86438502     7.84185698     1.40567099     0.83425721     0.63141612    -0.04096823
O       2.98625200     3.25268602     1.35458300    -0.09104048    -0.35320337     0.41477797
O       0.05769302     7.84250898     1.46565302    -0.50166792     0.93662058    -0.69113567
O       5.87867399     3.20464800     1.41594899     0.66632863     0.32211178    -0.36451520
