# total energy = -19954.01622776 eV

CRYSTAL
PRIMVEC
        5.59156018     0.00000000     0.00000000
        0.29740034     5.94367513     0.00000000
        0.00000000     0.00000000    10.01079252
PRIMCOORD
24 1
Ti      2.20291072     3.52221623     3.71393262     0.10919299    -0.82011408     0.57572472
Ti      3.68604957     2.42145868     6.29686001    -0.10919299     0.82011408    -0.57572472
Ti      4.94352062     2.42146071     1.29142369    -0.08689123     0.26632422    -0.31533384
Ti      0.94543973     3.52221443     8.71936906     0.08689123    -0.26632422     0.31533384
Ti      2.05421067     0.55037889     1.29146381     0.10919299    -0.82011408    -0.57572472
Ti      3.83474962     5.39329619     8.71932894    -0.10919299     0.82011408     0.57572472
Ti      0.79673967     0.55037669     6.29681984     0.08689123    -0.26632422    -0.31533384
Ti      5.09222067     5.39329839     3.71397280    -0.08689123     0.26632422     0.31533384
O       1.87448373     2.09286897     5.10843080     1.03188435     1.02999716    -0.11483425
O       4.01447656     3.85080595     4.90236184    -1.03188435    -1.02999716     0.11483425
O       1.13076956     2.09289295     0.10306671    -0.82199613     0.64557699     0.21167437
O       4.75819079     3.85078202     9.90772564     0.82199613    -0.64557699    -0.21167437
O       3.86577650     0.87896843     0.10303425    -1.03188435    -1.02999716    -0.11483425
O       2.02318378     5.06470648     9.90775810     1.03188435     1.02999716     0.11483425
O       4.60949073     0.87894450     5.10846332     0.82199613    -0.64557699     0.21167437
O       1.27946950     5.06473052     4.90232932    -0.82199613     0.64557699    -0.21167437
O       0.38405005     3.61528002     2.70416485     0.25984632     0.04399391     0.36204848
O       5.50491029     2.32839489     7.30662784    -0.25984632    -0.04399391    -0.36204848
O       3.11544722     2.32833952     2.30126330     0.41356390     0.40230709    -0.10439017
O       2.77351312     3.61533539     7.70952917    -0.41356390    -0.40230709     0.10439017
O       0.23535000     0.64344250     2.30123135     0.25984632     0.04399391    -0.36204848
O       5.65361035     5.30023241     7.70956111    -0.25984632    -0.04399391     0.36204848
O       2.62481307     0.64349788     7.30665973    -0.41356390    -0.40230709    -0.10439017
O       3.26414728     5.30017703     2.70413285     0.41356390     0.40230709     0.10439017
