# total energy = -19960.15985949 eV

CRYSTAL
PRIMVEC
        7.60600008     0.00000000     0.00000000
        0.00000000     7.60600008     0.00000000
       -1.89786986    -1.89786986     4.85670466
PRIMCOORD
24 1
Ti      3.72928798     6.71542202     1.28876002     0.36527393     2.49870465     1.64095449
Ti      3.70772300     3.06865098     1.24396898     0.97231367    -1.93483401    -1.94733343
Ti      0.07773201     6.45909899     1.19531198    -0.21683792     2.77389944     0.44470048
Ti      0.05682898     2.84058300     1.07908100    -0.37709356    -1.97848133     0.69026998
Ti      5.67582421     2.82045225     3.47081082     1.41656164    -0.30917193     0.05971338
Ti      5.70720220    -1.07279977     3.58165081    -0.04479300     0.21782831     1.07432711
Ti      1.92251921     3.06839624     3.71193880    -0.97951945    -2.39551339    -0.67316365
Ti      1.81372121    -0.94975479     3.68763480     0.66791551     2.46143290     0.92786314
O       3.70127799     4.94477600     0.91834399     0.51585167    -2.75619456    -1.08884331
O       3.72800599     1.03232798     0.83353598     0.10549369    -0.28459346     0.40152136
O       0.09766300     4.71807800     0.68681201    -0.02021608    -2.10162050    -0.26810574
O       0.33675702     0.80824999     0.79080698    -1.05487902     0.75376956    -0.32205882
O       5.87457223     4.66820924     4.05575579    -0.65194022    -0.45602028    -0.50946659
O       5.65283924     0.82645823     3.97013983     0.25388368     1.24463062     0.30973603
O       1.75972322     4.88852023     4.16116980     0.28559182    -2.28748433     0.09862678
O       1.83653923     1.08788624     4.04646079    -0.05877364     0.40824094     1.61628372
O       3.79386221     2.97431122     3.41188784     0.20173011     0.43786443    -0.97445540
O       3.76496320    -1.01011475     3.28902383     0.55617019     0.14741014    -0.30712507
O      -0.00360280     2.81651025     3.04569982    -0.18622044     0.45801752     0.65553976
O       0.04669121    -1.08322377     3.25168080    -1.28909118     0.59466013    -0.47658603
O       5.73398598     6.56268300     1.68555702    -0.22440597     0.06181011    -0.77325596
O       5.70250300     2.83427002     1.46171398    -0.46757200     0.22860587     1.08881066
O       1.87145201     6.30837899     1.78216103     0.64063481     0.98627451    -0.93375431
O       1.98149500     2.72587901     1.77954700    -0.41007877     1.23076517    -0.73419858
