# total energy = -19514.60158045 eV

CRYSTAL
PRIMVEC
        5.93400000     0.00000000     0.00000000
        0.00000000     9.29699974     0.00000000
        0.00000000     0.00000000     4.64899994
PRIMCOORD
23 1
Ti      4.25336899     6.98163999     2.19203299     2.56847362     1.36923558    -0.46157232
Ti      4.51873497     2.38174002     2.21876401     1.73731922     0.46209837    -1.19988647
Ti      1.39900299     6.88740299     2.36330798    -3.10620590     0.89313524    -0.42510481
Ti      1.54952100     2.20211397     2.49038000    -0.54014861     1.38853095    -0.64167714
Ti      2.94797798     4.62398801     0.18705701    -1.22401808     0.23981588     0.37186110
Ti      2.97787200     0.20128701     4.61231902     0.09823546    -1.87851346     1.10528115
Ti      5.87595000     4.57229099     4.64219298     1.04915395     1.41299063     0.11452263
Ti      0.01667099     9.20301400     4.48137898    -0.16375825    -1.17236923     0.54010310
O       4.42363600     5.54871002     0.97556001    -1.02617547    -0.04615055    -0.17170579
O       4.68368799     0.74054202     0.93032599    -1.31347091     1.67200855    -0.61724137
O       1.27884499     5.52011301     1.14276499     2.40565459     0.04242965    -1.50838965
O       1.62789702     1.05645602     0.95258102     0.40084567    -0.44121406    -1.12123048
O       4.64363102     8.28822000     3.67050401    -1.55678683     1.06987113     0.36218629
O       4.63252999     3.86517101     3.56244998    -2.62576862    -0.62365344     0.50681167
O       1.69780202     8.41806898     3.61903401     0.00481182     0.88688205     0.70057059
O       1.40126702     3.63781699     3.97975101     1.24233900     0.02970165    -1.73886677
O       3.27300902     1.69532500     3.36078201    -1.81482310    -1.16943457     0.42203260
O       5.79268698     6.19042797     3.35330500     1.20932216    -0.78052139    -0.01627586
O       0.09108400     1.18881701     2.94076202    -0.69420454     0.95508830     1.70877302
O       2.82741601     8.00277301     1.18987198     1.28030675    -1.68395595     1.93851943
O       2.81291502     3.37847500     1.41581701     1.66413685    -1.57542296     1.12866508
O       5.85370598     7.77522499     1.48206498     0.60350036     0.82491253    -1.33189981
O       0.04108903     3.40761198     1.53248599    -0.19873941    -1.87546439     0.33452353
