# total energy = -19066.64443195 eV

CRYSTAL
PRIMVEC
        7.60600008     0.00000000     0.00000000
        0.00000000     7.60600008     0.00000000
       -1.89786986    -1.89786986     4.85670466
PRIMCOORD
22 1
Ti      3.78652099     6.68405002     1.62383998     1.18589349    -1.63274804    -2.96540967
Ti      3.73431199     2.73638900     1.46029002    -0.79206308     1.91268163     0.05000489
Ti      0.15882800     6.52045302     1.16064198    -1.47629687    -1.56706893    -2.60459275
Ti      0.33947102     2.54606400     0.85840302    -0.89987178    -3.88736698    -1.34574803
Ti      5.80073322     2.50751624     3.65255183    -0.26085497     4.30685265     0.75432235
Ti     -0.89712975     0.60192420     2.71695581     1.65736842    -2.85305422    -0.51371174
Ti      1.58059720     2.72324720     4.01450182    -1.30648290     2.22829777     1.25013921
Ti      1.32651523    -0.61732876     3.92474579    -0.08544062    -1.17972721     2.25620711
O       3.58914099     4.70362501     1.23568000     0.21258403    -0.88510285    -1.04055875
O       4.04750200     0.91322399     0.95023502    -1.53302186    -0.47592654     0.63832159
O       0.35880101     4.25686801     0.72256899     0.35042812     3.28652900    -0.52395811
O       7.13591002     0.75298203     0.90830603    -0.33589264     0.38886664     1.24492347
O       5.79673523     4.31859924     4.20423483    -0.27006209     0.84299973     1.12879801
O       5.15234223     0.70271125     3.69249582    -1.96084253     1.20659525     1.68624115
O       1.45821925     4.58099321     4.70608483    -0.34287936     1.88883387     0.17310935
O       2.31564123     0.99258825     4.22169180    -1.46009223    -1.27353755     0.48277133
O       2.89249724     3.32843420     3.11183783     1.78753083    -1.20259333    -1.31698303
O       0.16565624     3.11106322     2.71007381    -0.33464977    -3.30186307     2.11329126
O       5.92990602     6.48967300     1.94288099    -0.19190207    -0.16737656    -0.31553592
O       5.34385899     2.87572799     1.83921602     2.64137573    -0.04361312     0.59482597
O       1.86471802     6.47359199     2.28333803     0.38112890     0.13496394    -1.12548669
O      -0.48907678    -0.63713380     4.61257879     3.03404272     2.27335792    -0.62097101
