# total energy = -19960.94093867 eV

CRYSTAL
PRIMVEC
        7.60600008     0.00000000     0.00000000
        0.00000000     7.60600008     0.00000000
       -1.89786986    -1.89786986     4.85670466
PRIMCOORD
24 1
Ti      3.79056200     6.50248703     1.29501098    -0.76648008     1.47468788     0.76947721
Ti      3.78942500     2.91638499     1.22214100    -0.93753615    -0.98701679    -1.18202064
Ti     -0.00774398     6.56213202     1.19966202     0.75499007     0.58610375     1.31070106
Ti     -0.01697802     2.88841501     1.07531601     0.80683124    -0.53820768     1.24175664
Ti      5.74270121     2.80569323     3.53975082    -0.64836098     1.12566795     0.16399222
Ti      5.79978822    -1.03868980     3.70730680    -0.61149186    -0.51306743    -0.26026824
Ti      1.79505925     3.00506621     3.57077680     1.41686529    -1.39639930    -0.06448149
Ti      1.89796924    -0.93146478     3.73017980     0.97307600     1.18527488    -0.12545420
O       3.61257000     4.78513201     0.69046201     0.25100198    -0.95444938     0.84217441
O       3.61735202     0.99458298     0.74196000     0.96283555     1.24299489     1.46609705
O       0.06403299     4.69687699     0.74612399    -0.18784512     0.72045371    -0.05978460
O       0.02292401     0.82689301     0.82657301    -0.45928584     1.63047236    -0.02413007
O       5.81411622     4.69496322     4.18453679    -0.27145794    -0.46758871    -1.28069447
O       5.69352323     0.99391923     4.04515383     0.10034094    -1.23118272    -1.07638271
O       1.92458220     4.77768522     4.27393684     0.34303903    -0.12220432    -2.06459686
O       1.90158924     1.07050123     3.92364282     0.21295041    -0.46267661     0.78423124
O       3.76957424     2.99098522     3.14338282     1.01030636    -0.17072260     0.20366281
O       3.85961825    -1.09538479     3.27981779    -0.01735521     0.21638412     0.63074943
O       0.01670724     2.94627022     3.11671779    -1.33164038    -0.21896268     0.12340991
O       0.08641925    -1.11815777     3.37017179    -1.97408037     0.30471363    -0.90258121
O       5.68097702     6.46953701     1.73626898     1.51128471     0.34468736    -0.37655620
O       5.71223700     3.03604001     1.57967299    -0.05308739    -0.63351028     0.06779333
O       1.91670201     6.74227301     1.74274198    -0.56453733    -0.72271191    -0.56788645
O       1.88678302     3.00921099     1.52683300    -0.52036319    -0.41274089     0.38079158
