# total energy = -4983.43608214 eV

CRYSTAL
PRIMVEC
        4.19507301     0.00000000     0.00000000
        0.00000000     2.81702160     0.00000000
        0.00000000    -0.00009028     5.58932899
PRIMCOORD
6 1
Ti      2.09753651     1.40846561     2.79466439     0.00000000     0.00000000     0.00000000
Ti      0.00000000     0.00000000     0.00000000     0.00000000     0.00000000     0.00000000
O       2.09753651     0.54897842     1.08927788    -0.00000000    -0.62237406     1.55234370
O       2.09753651     2.26795285     4.50005090    -0.00000000     0.62237406    -1.55234370
O       0.00000000     0.85945139     3.88394333     0.00000000     0.62173823     1.55442758
O       0.00000000     1.95747983     1.70538539     0.00000000    -0.62173823    -1.55442758
