# total energy = -19959.18348521 eV

CRYSTAL
PRIMVEC
        5.41035221     0.00000000     0.00000000
        0.28776237     5.75105603     0.00000000
        0.00000000     0.00000000     9.68636869
PRIMCOORD
24 1
Ti      2.13152009     3.40807034     3.59357370     0.16174302    -0.62343875     0.45622957
Ti      3.56659426     2.34298548     6.09279511    -0.16174302     0.62343875    -0.45622957
Ti      4.78331393     2.34298744     1.24957200    -0.17024463     0.09312616    -0.14882373
Ti      0.91480048     3.40806859     8.43679692     0.17024463    -0.09312616     0.14882373
Ti      1.98763902     0.53254254     1.24961082     0.16174302    -0.62343875    -0.45622957
Ti      3.71047533     5.21851344     8.43675810    -0.16174302     0.62343875     0.45622957
Ti      0.77091941     0.53254041     6.09275623     0.17024463    -0.09312616    -0.14882373
Ti      4.92719500     5.21851557     3.59361257    -0.17024463     0.09312616     0.14882373
O       1.81373657     2.02504451     4.94287980     0.70668776     0.73041905    -0.11909868
O       3.88437778     3.72601131     4.74348900    -0.70668776    -0.73041905     0.11909868
O       1.09412425     2.02506772     0.09972659    -0.51708580     0.36867319     0.19318351
O       4.60399016     3.72598815     9.58664194     0.51708580    -0.36867319    -0.19318351
O       3.74049671     0.85048335     0.09969518    -0.70668776    -0.73041905    -0.11909868
O       1.95761764     4.90057247     9.58667335     0.70668776     0.73041905     0.11909868
O       4.46010909     0.85046019     4.94291127     0.51708580    -0.36867319     0.19318351
O       1.23800521     4.90059574     4.74345753    -0.51708580     0.36867319    -0.19318351
O       0.37160398     3.49811816     2.61652988     0.12912136     0.03143098     0.21395751
O       5.32651042     2.25293765     7.06983897    -0.12912136    -0.03143098    -0.21395751
O       3.01448365     2.25288407     2.22668532     0.32711412     0.25853815    -0.10504426
O       2.68363075     3.49817175     7.45968331    -0.32711412    -0.25853815     0.10504426
O       0.22772291     0.62259020     2.22665441     0.12912136     0.03143098    -0.21395751
O       5.47039149     5.12846562     7.45971423    -0.12912136    -0.03143098     0.21395751
O       2.53974968     0.62264378     7.06986983    -0.32711412    -0.25853815    -0.10504426
O       3.15836472     5.12841203     2.61649891     0.32711412     0.25853815     0.10504426
