# total energy = -19911.70772284 eV

CRYSTAL
PRIMVEC
        6.49881164     0.00000000     0.00000000
        2.96256610     6.25011596     0.00000000
        0.00000000     0.00000000    11.95285044
PRIMCOORD
24 1
Ti      4.11112051     3.70381289     4.43442223    -0.01430459    -2.31269401     0.46943039
Ti      5.35025702     2.54630298     7.51842827     0.01430459     2.31269401    -0.46943039
Ti      6.81175829     2.54630509     1.54195528    -0.54662342    -1.28331803     0.40221144
Ti      2.64961936     3.70381102    10.41089542     0.54662342     1.28331803    -0.40221144
Ti      2.62983761     0.57875501     1.54200318    -0.01430459    -2.31269401    -0.46943039
Ti      6.83153996     5.67136105    10.41084752     0.01430459     2.31269401     0.46943039
Ti      1.16833630     0.57875271     7.51838037     0.54662342     1.28331803     0.40221144
Ti      8.29304133     5.67136334     4.43447020    -0.54662342    -1.28331803    -0.40221144
O       3.10008474     2.20077205     6.09944809     1.80926463     2.05654751    -0.87810353
O       6.36129279     4.04934382     5.85340248    -1.80926463    -2.05654751     0.87810353
O       2.23571072     2.20079730     0.12306131     0.03692645    -1.04997901     1.73625504
O       7.22566690     4.04931869    11.82978893    -0.03692645     1.04997901    -1.73625504
O       4.88000986     0.92428582     0.12302248    -1.80926463    -2.05654751    -0.87810353
O       4.58136768     5.32583012    11.82982770     1.80926463     2.05654751     0.87810353
O       5.74438396     0.92426062     6.09948686    -0.03692645     1.04997901     1.73625504
O       3.71699352     5.32585533     5.85336365     0.03692645    -1.04997901    -1.73625504
O       2.03811745     3.80167486     3.22876311     0.65721561     2.99004239     2.80347073
O       7.42326001     2.44844102     8.72408746    -0.65721561    -2.99004239    -2.80347073
O       4.64607331     2.44838286     2.74770016     0.63249547     2.12923570     1.76284925
O       4.81530421     3.80173301     9.20515015    -0.63249547    -2.12923570    -1.76284925
O       0.55683451     0.67661679     2.74766198     0.65721561     2.99004239    -2.80347073
O       8.90454295     5.57349909     9.20518833    -0.65721561    -2.99004239     2.80347073
O       3.33402127     0.67667494     8.72412551    -0.63249547    -2.12923570     1.76284925
O       6.12735625     5.57344093     3.22872493     0.63249547     2.12923570    -1.76284925
