# total energy = -4984.65714932 eV

CRYSTAL
PRIMVEC
        4.02373983     0.00000000     0.00000000
        0.00000000     3.78275797     0.00000000
        0.00000000    -0.00007450     5.37992238
PRIMCOORD
6 1
Ti      2.01186974     1.89134185     2.68996130     0.00000000     0.00000000     0.00000000
Ti      0.00000000     0.00000000     0.00000000     0.00000000     0.00000000     0.00000000
O       2.01186974     0.73718934     1.04846769     0.00000000     0.41348908     1.34600360
O       2.01186974     3.04549436     4.33145497     0.00000000    -0.41348908    -1.34600360
O       0.00000000     1.15412276     3.73843004     0.00000000    -0.41225083     1.34644480
O       0.00000000     2.62856094     1.64149256     0.00000000     0.41225083    -1.34644480
