# total energy = -19072.15651139 eV

CRYSTAL
PRIMVEC
        5.17600016     0.00000000     0.00000000
        0.00000000     5.50899976     0.00000000
        0.00000000     0.00000000     9.26300011
PRIMCOORD
22 1
Ti      1.79592699     3.58229000     3.30504499     1.41255380     1.78858781    -1.05427739
Ti      3.87999501     2.33120698     6.03500798    -0.41655692    -1.17540313     0.38568824
Ti      4.29581302     2.36693200     1.70518902     0.60874207     0.42035187    -1.47221499
Ti      1.51442401     2.56476999     7.93607799    -1.28450433     0.41450029     1.37646167
Ti      1.58788302     0.71304999     1.30531999     0.53631175     0.42697786     0.05512164
Ti      3.03077501     5.48245401     7.77782600     1.15037060     0.69194994    -0.05145191
Ti      0.47229202     5.08845599     6.24593502    -0.58866920     3.37189377     1.04939872
Ti      4.45140902     5.06213000     3.58659099    -1.74238095     0.12388762     0.48738467
O       3.45614700     3.29997701     4.18314902     0.92992619    -0.74119352     1.64345309
O       0.41894000     2.08320298     0.31674201     0.38523753    -0.16303268    -0.58385764
O       0.28039901     3.34007298     6.70247300    -1.42549134    -2.20909368    -2.36036125
O       3.00283800     1.18456899     0.04513803    -0.86832459    -0.77592451    -0.34001849
O       1.37454299     4.71014098     7.97747802    -1.47274592     1.13324216     2.24635464
O       3.98440798     0.38560199     5.29669702     0.58570266    -0.66286638    -2.26725617
O       1.05185298     4.89281598     4.46787199    -0.26545107    -0.62967831     0.65671116
O       0.17460002     3.92168302     2.18147701    -0.65551174    -0.05452181    -0.06073796
O       4.57108701     1.04557101     7.32233801     1.71279449    -0.19812388     0.54584797
O       2.41101902     2.30643799     2.02525299     0.10319538     0.32518862     0.46970318
O       3.07710501     3.41679902     7.42613501     1.92157585     0.07988318    -0.41096297
O       0.03837101     1.09456298     2.59679299     0.06322474    -0.40085004     0.61508524
O       2.04405302     1.28859598     6.66097201    -0.33444562    -0.52949395    -0.66756430
O       2.74518800     5.29991802     2.52144202    -0.35555362    -1.23628148    -0.26250690
