# total energy = -19072.19547797 eV

CRYSTAL
PRIMVEC
        5.17600016     0.00000000     0.00000000
        0.00000000     5.50899976     0.00000000
        0.00000000     0.00000000     9.26300011
PRIMCOORD
22 1
Ti      1.81929398     3.23721701     3.37702299     0.56218606     2.29140887     0.06077550
Ti      3.49216900     2.13170101     5.99617399     0.42663050     0.43129089    -1.61001023
Ti      4.37015999     2.25412802     1.44776498    -1.09415110     0.51541382    -3.24801746
Ti      0.85381903     3.12324001     7.94974500     0.04909086     0.24302050     0.31234004
Ti      1.73452100     0.54464701     1.22659402     1.97726340    -0.64500209    -1.69958518
Ti      3.40392800     5.07539801     7.99334201    -0.58701187     1.91848461     1.28801877
Ti      0.68017200     0.25957800     6.11982202     1.89795589    -1.58148023    -0.88444207
Ti      4.50316600     4.95029601     3.36148100    -0.84180211    -0.60839188     0.47282708
O       3.46459198     3.32703601     4.31751998     0.72247357    -0.27947130     1.09577501
O       1.08297198     2.03512500     0.15565802    -1.15253933    -0.54980413    -0.31766351
O       4.40884502     3.69384099     8.71691099    -0.71401155    -0.04108213     0.03167703
O       3.60014799     0.92397798     0.14518899    -0.34746827    -0.15507820     1.16280009
O       1.77716300     4.80548099     9.03841998    -0.60520217    -0.71404524    -0.69622234
O       4.41463401     0.69775598     4.97961603    -1.28217748     0.46504074    -1.12802771
O       1.14906601     4.83024199     4.17746698    -1.47139043    -0.21960186     0.46925453
O       0.19148602     3.74887701     2.13668200     0.15340981    -0.56852023     0.58421888
O       4.72526698     1.15493998     7.29078200     0.12381589     0.69999081    -0.10945113
O       2.49702398     2.23549098     1.97884298     1.86551447    -1.19606272     0.72346268
O       1.82919800     4.15470198     6.49541399     0.67135385    -0.93381036     2.03051225
O       0.11428001     1.00185599     2.34095601     0.39668074    -0.83842548     0.89206797
O       2.18194200     1.27672097     6.98178599    -0.76571697     0.37223031    -0.27845006
O       2.88241001     4.70129398     2.24040201     0.01509649     1.39389556     0.84813963
