# total energy = -19517.94765835 eV

CRYSTAL
PRIMVEC
        7.60600008     0.00000000     0.00000000
        0.00000000     7.60600008     0.00000000
       -1.89786986    -1.89786986     4.85670466
PRIMCOORD
23 1
Ti      3.79809700     6.62353399     1.17490500     0.88307373    -0.08372903     0.02614839
Ti      3.78346298     2.85487798     1.14925302     0.74816713    -0.63433021     2.58284275
Ti      0.10398502     6.73933703     1.19735698    -1.40014000    -0.36564520    -0.20025096
Ti     -0.05508502     2.89804000     1.17834602     0.71233519     1.04245545    -0.06289846
Ti      5.60956524     2.92086125     3.64810182    -0.29033808    -0.51917200     0.15796709
Ti      5.67818625    -0.89506379     3.64102481     0.29545020     0.24315909    -0.66669784
Ti      1.83849120     2.68005120     3.66833083     1.84229380     1.14877677    -0.14088622
Ti      1.86786821    -1.01017677     3.60636481     0.01872201    -0.99605859    -0.05438425
O       3.82675502     4.66855199     0.78694298    -0.54327559     0.17680480    -0.51719199
O       3.73417599     0.92198801     0.96238699    -0.06351347    -0.35955348    -1.05644920
O       0.01855100     4.77914903     0.71802802     0.30172550     0.26587453     0.57024184
O       0.21245001     1.08923702     0.92407000    -0.34355685    -2.82854646    -0.92243142
O       5.75078524     4.75628322     4.09159680     0.58115386     1.71828585     0.19065046
O       5.46606920     0.95379225     4.11700583     0.22680764    -0.34899782    -1.27432739
O       1.88828721     4.70587221     3.96141079    -0.71641348     0.36240278     1.25458491
O       2.29140422     0.82176221     4.04044484    -1.08445084     0.81462786     0.33903839
O       3.86197923     3.02343723     3.22141181    -1.29400199    -0.46949750    -0.83235896
O       3.81362021    -1.15610079     3.07558082     0.02790008     0.46283448     0.98788839
O      -0.01385180    -0.59174680     3.33291681     0.88582301    -0.87369460    -0.64989182
O       5.77583802     6.48619599     1.62411700    -0.10318818     0.83471538     0.31123344
O       5.78275998     2.89462501     1.63529402    -1.12354679    -0.22727121     0.60809338
O       1.88462001     6.36333601     1.60621700     0.04692959     0.85469106     0.56470111
O       1.78695601     2.95276101     1.84496701     0.39204350    -0.21813222    -1.21562214
