# total energy = -19901.14013812 eV

CRYSTAL
PRIMVEC
        7.46731677     0.00000000     0.00000000
        0.00002351     3.01456265     0.00000000
        0.00000000     0.00000000    11.55754456
PRIMCOORD
24 1
Ti      2.70655721     1.78642700     4.28776662    -0.59771794     0.42129778     0.63399956
Ti      4.76078328     1.22813555     7.26977805     0.59771794    -0.42129778    -0.63399956
Ti      6.44008815     1.22813658     1.49095954    -0.59646684    -0.42138828    -0.63461637
Ti      1.02725234     1.78642613    10.06658523     0.59646684     0.42138828     0.63461637
Ti      2.70654556     0.27914572     1.49100587    -0.59761099     0.41396679    -0.63539233
Ti      4.76079493     2.73541693    10.06653890     0.59761099    -0.41396679     0.63539233
Ti      1.02724069     0.27914464     7.26973171     0.59539007     0.41436042    -0.63344241
Ti      6.44009980     2.73541801     4.28781295    -0.59539007    -0.41436042     0.63344241
O       2.36346128     1.06147874     5.89772651     5.84387643    -0.60181268     1.49241512
O       5.10387926     1.95308381     5.65981816    -5.84387643     0.60181268    -1.49241512
O       1.37025748     1.06149088     0.11899140    -5.84567517    -0.60193147     1.49599616
O       6.09708311     1.95307167    11.43855295     5.84567517     0.60193147    -1.49599616
O       5.10386761     0.44580249     0.11895391    -5.84807555     0.60217752     1.49248557
O       2.36347288     2.56876006    11.43859044     5.84807555    -0.60217752    -1.49248557
O       6.09707146     0.44579034     5.89776405     5.84403558     0.60234644     1.49394879
O       1.37026898     2.56877226     5.65978062    -5.84403558    -0.60234644    -1.49394879
O       0.27131921     1.83362788     3.12198111     0.74589813    -0.34051086     1.58053149
O       7.19602128     1.18093466     8.43556356    -0.74589813     0.34051086    -1.58053149
O       4.00498743     1.18090664     2.65682793     0.74384382     0.34084150    -1.58142443
O       3.46235311     1.83365596     8.90071653    -0.74384382    -0.34084150     1.58142443
O       0.27130756     0.32634656     2.65679102     0.74607631    -0.33992362    -1.57997922
O       7.19603293     2.68821599     8.90075344    -0.74607631     0.33992362     1.57997922
O       3.46234146     0.32637458     8.43560036    -0.74424542    -0.33992850    -1.58101589
O       4.00499908     2.68818797     3.12194425     0.74424542     0.33992850     1.58101589
