# total energy = -19073.11888867 eV

CRYSTAL
PRIMVEC
        5.17600016     0.00000000     0.00000000
        0.00000000     5.50899976     0.00000000
        0.00000000     0.00000000     9.26300011
PRIMCOORD
22 1
Ti      1.79977601     3.36433501     3.31044397    -0.36583778     0.70284525     0.88474315
Ti      3.76160499     2.40818502     5.89400098     0.59313186    -1.27080626    -0.35137454
Ti      4.27589500     2.42885198     1.22790300    -0.64712531    -0.98448605    -1.40229947
Ti      0.89151301     3.14052997     8.15802901    -1.15010372    -0.71094988     0.19416490
Ti      1.72770599     0.55859601     1.25440499     1.65717867     0.43653825    -2.10304901
Ti      3.27581499     4.88018198     7.78720202     0.84704588     2.70884690     2.72662198
Ti      0.81827699     0.10542401     6.09233502    -0.78122073     1.65471196    -0.46736836
Ti      4.43309002     5.05294100     3.40136599    -0.46553774     0.69904670     1.47636938
O       3.42453099     3.56145402     4.36447197     0.30553279    -0.87850051     1.76475161
O       0.73392900     2.01147401     0.46025398     1.52021493     0.07973791    -1.94315127
O       4.33715801     3.68756701     8.89545603    -0.42080670    -0.62105997     1.17980717
O       3.36630900     0.71889200     0.21561602    -1.19929486     0.96080772     0.07000654
O       1.52586000     4.72096498     8.72769800     0.35700938     1.81274333     1.54219710
O       4.17121300     0.76954199     4.98251798     1.28796684    -0.33081317    -1.21236866
O       0.96294802     4.85130203     4.36591901    -0.58965110    -0.18182617     1.55914427
O       0.06455200     3.48805798     2.43474500    -0.40628819     0.26158927     0.45006689
O       0.21709401     1.83483602     6.95309500    -1.14986281    -0.61982301    -1.28834068
O       2.65458201     2.11728501     2.33155697    -0.09900756    -1.81267108    -1.15722079
O       2.58377502     3.43064600     7.03220398    -1.72382889    -1.98411333    -1.61536635
O       4.97433701     0.77807598     2.15158898     0.74788251    -1.00591826     1.14924600
O       2.51155201     0.74892001     6.67772899     0.02489060    -0.09460172    -0.25967509
O       2.41286702     4.78275198     2.43876400     1.65771218     1.17870186    -1.19690424
