# total energy = -19959.53082331 eV

CRYSTAL
PRIMVEC
        7.60600008     0.00000000     0.00000000
        0.00000000     7.60600008     0.00000000
       -1.89786986    -1.89786986     4.85670466
PRIMCOORD
24 1
Ti      3.76175898     6.47895203     1.28253901    -0.72776953     1.73408554    -0.92911475
Ti      3.79963400     2.84473402     1.27278501    -1.36776440    -1.66308039    -0.89631055
Ti      0.04022202     6.76249700     1.14505098     0.34507380    -0.44770070     1.44204797
Ti     -0.04025002     2.93511998     1.18893602     1.35666880     0.52482277    -0.52700847
Ti      5.73133025     2.97789222     3.57385481     1.00155484    -0.40861581     1.78112081
Ti      5.72190121    -0.95694678     3.56399581     1.86768551     0.17261750     1.00414985
Ti      1.91169023     2.76049223     3.62437780    -1.67316169     0.12309752    -0.38414455
Ti      1.93136620    -1.10212180     3.62492983    -1.84670376     0.06575547     1.60980222
O       3.45837098     4.62228702     0.82751701     1.53679212     0.85148258    -0.84407497
O       3.62100101     0.84486302     1.06535102     1.09094596     0.20423566    -0.63915823
O       0.10462199     4.97178600     0.69339000    -0.77141660    -1.85131580     0.61166875
O       0.07053599     1.02141401     0.62751198    -0.64266239     0.51110644     1.29595294
O      -1.46553179     4.79333923     4.09446383    -1.03883071     0.99179570    -1.50558098
O       5.72293422     1.12225324     4.14762482    -0.46681661    -0.71125610    -1.82917911
O       1.56983024     4.60126324     4.12731182     1.43990984     0.49406002     0.65222612
O       1.82974824     0.73303522     4.04157479     1.06896739     1.91878620     1.05384030
O       3.76206421     3.06216724     3.24733181     0.14013726    -0.59533427     0.14349409
O       3.81168924    -1.22819976     3.21139083     0.75751901    -0.24027688     0.79349904
O       0.05196420     2.78035024     3.10065382    -1.17564044    -0.61289106     0.85149698
O       0.07589021    -0.96611176     3.11236383    -1.44823481     0.43239183     1.16052698
O       5.79347201     6.64056699     1.71705899    -1.74446226     0.15175274    -2.16009975
O       5.68473201     3.16537199     1.68398399    -0.47312429    -0.42535807    -1.30922447
O       1.87099602     6.64259898     1.81287802     1.61175061    -0.11370142    -2.04092471
O       1.81132102     3.04247899     1.60809002     1.15958210    -1.10645949     0.66499422
