# total energy = -19924.98983467 eV

CRYSTAL
PRIMVEC
        7.16194758     0.00000000     0.00000000
        0.00002397     3.67008199     0.00000000
        0.00000000     0.00000000    10.82056472
PRIMCOORD
24 1
Ti      2.59587585     2.17488726     4.01435234    -0.19670823     0.59395590     0.94181241
Ti      4.56609587     1.49519489     6.80621249     0.19670823    -0.59395590    -0.94181241
Ti      6.17672705     1.49519620     1.39588685    -0.19549802    -0.59397596    -0.94051169
Ti      0.98524472     2.17488612     9.42467814     0.19549802     0.59397596     0.94051169
Ti      2.59586392     0.33984632     1.39593024    -0.19670823     0.59395590    -0.94181241
Ti      4.56610785     3.33023594     9.42463475     0.19670823    -0.59395590     0.94181241
Ti      0.98523274     0.33984491     6.80616910     0.19549802     0.59397596    -0.94051169
Ti      6.17673898     3.33023735     4.01439573    -0.19549802    -0.59397596     0.94051169
O       2.26681016     1.29229831     5.52165136     3.27217144    -0.25067160     0.57451193
O       4.89516162     2.37778384     5.29891347    -3.27217144     0.25067160    -0.57451193
O       1.31422258     1.29231308     0.11140377    -3.27247175    -0.25058521     0.57336856
O       5.84774925     2.37776907    10.70916073     3.27247175     0.25058521    -0.57336856
O       4.89514963     0.54274285     0.11136868    -3.27217144     0.25067160     0.57451193
O       2.26682209     3.12733931    10.70919588     3.27217144    -0.25067160    -0.57451193
O       5.84773732     0.54272808     5.52168645     3.27247175     0.25058521     0.57336856
O       1.31423435     3.12735413     5.29887837    -3.27247175    -0.25058521    -0.57336856
O       0.26022481     2.23235195     2.92290447    -0.29138066     0.09574226     0.70520372
O       6.90174691     1.43773026     7.89766036     0.29138066    -0.09574226    -0.70520372
O       3.84120756     1.43769600     2.48741233    -0.28943408    -0.09575794    -0.70507054
O       3.32076416     2.23238621     8.33315234     0.28943408     0.09575794     0.70507054
O       0.26021287     0.39731090     2.48737778    -0.29138066     0.09574226    -0.70520372
O       6.90175890     3.27277125     8.33318689     0.29138066    -0.09574226     0.70520372
O       3.32075223     0.39734516     7.89769485     0.28943408     0.09575794    -0.70507054
O       3.84121955     3.27273699     2.92286992    -0.28943408    -0.09575794     0.70507054
