# total energy = -4983.64314141 eV

CRYSTAL
PRIMVEC
        3.07341114     0.00000000     0.00000000
        2.26615298     4.24903614     0.00000000
       -0.00001458    -0.00006565     4.98324607
PRIMCOORD
6 1
Ti      2.66977453     2.12448514     2.49162314     0.00000000     0.00000000     0.00000000
Ti      0.00000000     0.00000000     0.00000000     0.00000000     0.00000000     0.00000000
O       1.97834245     0.82806173     0.97116132    -3.92301071     1.98953708     2.26169513
O       3.36120664     3.42090866     4.01208502     3.92301071    -1.98953708    -2.26169513
O       0.69142590     1.29639703     3.46278543     3.92235714    -1.98967412     2.26132875
O       1.57471217     2.95257344     1.52046085    -3.92235714     1.98967412    -2.26132875
