# total energy = -4988.74295949 eV

CRYSTAL
PRIMVEC
        4.35080166     0.00000000     0.00000000
       -0.00000810     3.55974662     0.00000000
       -2.17542986    -1.77991399     5.09879722
PRIMCOORD
6 1
Ti     -0.00018884     2.66994263     1.27469944    -0.00173832    -0.00314935     3.98385975
Ti      2.17555253    -0.89011022     3.82409794     0.00173832     0.00314935    -3.98385975
O       0.00004488     0.88992916     0.83055246     0.00045071     0.00120456    -0.82326291
O       2.17531871     0.88990314     4.26824498    -0.00045071    -0.00120456     0.82326291
O      -0.00002105    -0.88992106     3.37995096    -0.00196561    -0.00028051    -1.23552686
O       2.17538452     2.66975336     1.71884642     0.00196561     0.00028051     1.23552686
