# total energy = -19070.05424818 eV

CRYSTAL
PRIMVEC
        5.17600016     0.00000000     0.00000000
        0.00000000     5.50899976     0.00000000
        0.00000000     0.00000000     9.26300011
PRIMCOORD
22 1
Ti      1.69864902     3.45970900     3.18026902     0.15191780     0.05437474     3.00554203
Ti      3.90638302     2.32778399     5.94340200    -2.36554203     0.78540983    -2.07757168
Ti      4.21806699     2.55640000     1.48379100     1.26769111    -1.65383213     0.33300889
Ti      1.27579698     2.39604400     7.83066303    -0.19451920     0.85758432     0.24307475
Ti      1.54629699     0.66137398     1.55928099    -0.30537723     1.22732761    -0.94508722
Ti      3.19973702     0.08827999     7.90916700    -0.61420052    -1.96934285     0.54208876
Ti      0.70291699     5.21108599     6.41665299    -2.11711938     0.09863707    -0.95592160
Ti      4.37655097     4.99755900     3.45381502    -0.33523727     1.20849221     3.14290764
O       3.82315000     3.40464202     4.22283202    -0.44315062    -0.32760212     0.69357513
O       0.81356001     2.24924001     0.41597200    -0.89577473    -0.28866814    -0.68921917
O       5.14487401     3.32625399     6.94500399    -0.61972557     1.97364894    -0.70183686
O       3.15722001     1.01149099     0.20167300     0.30379292     0.52969553     0.81464945
O       1.33652102     5.04511399     8.08356303     0.23245867    -1.28040342     4.37870241
O       4.34421798     0.68640502     4.99980202    -0.80215183    -0.15301900    -1.07129784
O       0.94090102     4.62032600     4.74708300     1.28674711    -1.99193489    -3.14684143
O       0.28596802     4.11526701     2.15980901    -1.22179819    -0.46314533    -1.87849006
O       4.61480102     1.15640099     7.17511999     1.28590764    -1.57945086     2.84018430
O       2.57241697     2.01409799     2.51795400     0.21693820    -0.75378628    -0.92371955
O       2.48341698     3.42754899     6.72010598     1.60836009     0.05353990     0.43662413
O       0.01119300     1.17336599     2.58025901    -0.15938532     0.25303444    -0.94310362
O       2.07486098     1.04595498     6.70978401     1.42104307     1.79751211    -2.22334583
O       2.51495600     4.94612699     2.60387900     2.29912527     1.62192884    -0.87392266
