# total energy = -19519.38411284 eV

CRYSTAL
PRIMVEC
        7.60600008     0.00000000     0.00000000
        0.00000000     7.60600008     0.00000000
       -1.89786986    -1.89786986     4.85670466
PRIMCOORD
23 1
Ti      3.77967301     6.66353000     1.20088098     0.10574643    -0.34481694    -0.04618037
Ti      3.77083898     2.76155402     1.26638302     0.08580829     0.34188126     0.12538683
Ti     -0.03140900     6.61664601     1.17181301    -0.05143340     0.54287552    -0.29887466
Ti      0.01496201     2.83544701     1.19563901    -0.21092027    -0.46806976     0.26937484
Ti      5.67240123     2.86960424     3.65509881    -0.22431829     0.75598586    -0.12484742
Ti      5.70068522    -0.85467375     3.59425084    -0.03719488    -0.91129854     0.58791792
Ti      1.97380722     2.84110222     3.73896981     0.42994003     0.13574530    -0.49671906
Ti      1.88226321    -0.92508878     3.57564380    -0.06921489    -0.29362472     0.21205104
O       3.72729600     4.74653297     0.77479000    -0.09200902    -0.25629331     0.62488783
O       3.87058698     0.87781298     0.76026901    -0.18854601     1.22755978     0.19300996
O      -0.00641199     4.75118402     0.73452501     0.26275707     0.60225131     0.91782838
O      -0.10622201     0.94914999     0.74738799     0.04372574    -0.45780771     0.28846091
O       5.76425920     4.78839523     3.95634783     0.06693073    -0.54699443     0.57862801
O       5.87064722     0.97376224     4.19278179     0.30750637     0.05359569    -2.36428399
O       1.97516022     4.77286325     3.98754383    -0.51104500    -0.47425558     0.16052509
O       1.80477420     0.94478020     4.10041184    -0.20177459    -0.11453729     0.01617970
O       3.85644324     2.82886923     3.41168781    -0.76943916    -0.35602670    -1.43271563
O       3.76157425    -0.75928977     3.21020579     0.44333780    -0.17883700    -0.36139079
O      -0.02979178    -0.98431276     3.19072080     0.34694530     0.32227556    -0.23977243
O       5.67628401     6.61228898     1.62103798     0.04321846    -0.03087562    -0.09892477
O       5.73351803     2.89143000     1.64463802     0.46244239    -0.22072337     0.44727159
O       1.87339399     6.59184601     1.58820100    -0.01243180     0.33160430     0.15812110
O       1.89406598     2.69381701     1.61795098    -0.23003103     0.34038616     0.88406644
