# total energy = -19961.76827668 eV

CRYSTAL
PRIMVEC
        7.60600008     0.00000000     0.00000000
        0.00000000     7.60600008     0.00000000
       -1.89786986    -1.89786986     4.85670466
PRIMCOORD
24 1
Ti      3.76429501     6.62526800     1.24490499     0.17417456    -1.51575972    -0.10542478
Ti      3.74634098     2.76719098     1.21290701     0.28626622     1.40074601     0.27627696
Ti      0.04159899     6.70850298     1.24877200     0.03667397     0.05421507    -0.36569174
Ti      0.00877799     2.92276798     1.14051800    -0.36488287    -0.19873658     0.51796384
Ti      5.71092322     2.97888220     3.62283482     0.25664993    -0.02345181    -0.61607537
Ti      5.72092123    -0.88119379     3.61569183    -0.36375313    -0.32375034    -0.09393426
Ti      1.83090624     2.76259121     3.64241983     0.21301855     0.41304839     0.42433374
Ti      1.87570623    -1.04805777     3.71328582     0.45501601    -0.33080443    -0.85416835
O       3.70202302     4.71796899     0.72552699     0.14883633    -0.63278163     0.60103570
O       3.74213698     0.87126399     0.83904598     0.19072270     0.86620549     0.04377356
O       0.12005899     4.76489601     0.80895898    -0.36213693     0.92860362    -0.82760473
O       0.11868800     1.00050098     0.79392098    -0.61825798    -0.53931274    -0.42973666
O       5.95983221     4.83753024     4.00876479    -0.93114335    -0.82290038     0.85343456
O       5.73642824     1.00281020     3.93841883    -0.37266020    -0.11169339     0.67479039
O       1.72599421     4.69837123     4.11481583     0.46767407     0.71314149    -0.30207851
O       1.97212021     0.90456421     4.05293882    -0.12575527    -0.66934428     0.18374267
O       3.77737220     2.85438923     3.14413182     0.72707585     0.24171695     0.60829598
O       3.78709022    -1.19537775     3.21504083     0.51180578     0.64256186     0.58024986
O       0.00361920     2.90291822     3.20637682    -0.53715893    -0.53133769    -0.28820457
O       0.00153525    -0.87826675     3.23758182     0.11493684     0.19448757    -0.57337010
O       5.69537599     6.59167398     1.56125402     0.63282226     0.37903551     0.46650550
O       5.73771498     3.01078799     1.59637102    -0.46391563    -0.56221460     0.17448052
O       1.91448201     6.55176502     1.70835202    -0.75065287     0.40409092    -0.03459883
O       1.85843198     2.80876399     1.67374700     0.67464461     0.02423471    -0.91399486
