# total energy = -19960.99120588 eV

CRYSTAL
PRIMVEC
        7.60600008     0.00000000     0.00000000
        0.00000000     7.60600008     0.00000000
       -1.89786986    -1.89786986     4.85670466
PRIMCOORD
24 1
Ti      3.87201402     6.57996498     1.14779202    -0.31739792    -0.01023685     0.54297245
Ti      3.74853902     2.72537598     1.23172101     1.96434206     0.42826778    -0.22776974
Ti     -0.04066097     6.73489601     1.18547102     0.07660039     0.38334494     0.09389672
Ti      0.06566402     2.93385498     1.21890000    -1.89945253    -0.63807939     0.68609348
Ti      5.68260424     2.90536720     3.68708281    -1.22168172     0.92392498    -1.36258491
Ti      5.70397925    -0.81087878     3.66023580    -0.83844142    -1.45057246    -0.31687778
Ti      1.85072822     2.75444823     3.63198879     1.39286352    -0.20862067     1.12843728
Ti      1.93194422    -0.98907678     3.60880379     0.73951768     0.05787453    -0.43215504
O       3.99630198     4.63758300     0.74907098    -1.15574318     0.38376840    -0.04045658
O       3.97330600     0.95406499     0.70468598    -0.49355017    -1.64846726     0.35988233
O      -0.12896700     4.84543901     0.81934599     0.80948873    -1.04607865     0.15999570
O      -0.13789798     1.01058202     0.77178798     0.65098685    -0.10968382     0.57541233
O       5.40365925     4.85346324     4.09490882     1.08158740    -0.93179230    -0.20053275
O       5.55978125     0.98435822     4.19747184     0.73526147     1.37265721    -1.01480245
O       2.15981223     4.66712924     4.08841984    -1.06853107     0.30190907    -0.82174262
O       1.96888725     0.82983624     4.08197980    -0.83884431     1.64076552    -0.87268287
O       3.72986023     2.75893021     3.13677081     0.52600265     0.13377455     1.05395214
O       3.84796021    -0.81209478     3.17335479    -0.79375846    -0.26313734    -0.23231263
O      -0.06419375     2.98334724     3.21605182     1.18241659    -0.07024488     0.81447770
O      -0.01000579    -0.89409878     3.22585282     0.08784923    -0.15444417     0.04227744
O       5.66414199     6.69045100     1.63016502     1.21056503    -0.01530270     0.38580137
O       5.69185500     2.80561798     1.72914599     0.47788032     0.05594928     0.08113813
O       1.93066801     6.62095002     1.57295101    -0.38891086    -0.05580402    -0.04468013
O       1.92264901     2.51499098     1.64073200    -1.91904974     0.92022824    -0.35773957
