# total energy = -19074.24500400 eV

CRYSTAL
PRIMVEC
        5.17600016     0.00000000     0.00000000
        0.00000000     5.50899976     0.00000000
        0.00000000     0.00000000     9.26300011
PRIMCOORD
22 1
Ti      1.82990202     3.32737902     3.19586302     0.21714980     0.83361289     1.22927290
Ti      3.47479299     2.24148100     6.01475600     0.88314572    -0.21421900    -0.85720483
Ti      4.50032802     2.16895599     1.29714002    -0.72555144    -0.84680008    -2.13802657
Ti      0.71320599     3.30040299     8.09976701     0.73809509     0.92951353     1.58451027
Ti      1.84404899     0.55027798     1.34567399    -0.22975078    -0.75668494    -3.05430354
Ti      3.23805401     4.96262298     8.01063499     0.33106102     1.98230019     2.24197322
Ti      0.59890201     0.43206000     5.94975102     0.50201091     0.21122392    -1.18316966
Ti      4.44045802     4.90157201     3.40330199    -1.09422309     0.45677130     1.59869274
O       3.37302500     3.43702502     4.52645900    -0.89376130     0.08068022     0.02845210
O       0.85372002     2.04877000     0.21768299     0.43745382    -1.09709912    -0.24265875
O       4.45635498     3.88737598     9.07562299    -1.19630672    -0.44284492    -0.22297695
O       3.41554699     0.83599401     0.18927898     0.38362005     0.95035181    -0.69520084
O       1.63431398     4.77752398     9.16031501    -0.23085712     0.06527185    -1.07524834
O       4.53240198     0.96694903     4.61577698    -1.39665538     0.20120792     0.85710430
O       0.85045902     4.73792098     4.34696901     1.60144819    -1.38393047     1.19306456
O       0.06217801     3.49539100     2.36983099     0.69048055    -0.70417194     0.70756451
O       0.19611499     2.31374201     6.57252300    -0.76234060    -0.82050720    -0.17364054
O       2.70468499     1.99906602     2.16772100     0.10929661     0.26254187     1.56190975
O       2.58890100     3.41515900     7.37969801    -0.57030252    -2.08775017    -2.05277827
O       5.16542101     0.54481899     2.11526302     0.82770783     1.01212028    -0.49405051
O       2.48103198     0.62530097     6.52218702    -0.37065783     0.49038952     0.02136510
O       2.65571000     4.57917300     2.20022698     0.74893640     0.87802229     1.16534960
