# total energy = -19953.33695118 eV

CRYSTAL
PRIMVEC
        6.16043936     0.00000000     0.00000000
        0.00002603     4.84616079     0.00000000
        0.00000000     0.00000000     9.80836848
PRIMCOORD
24 1
Ti      2.23287841     2.87183044     3.63883475     0.16383281     0.41727323    -0.69452798
Ti      3.92758703     1.97433052     6.16953379    -0.16383281    -0.41727323     0.69452798
Ti      5.31299170     1.97433221     1.26531033     0.16500343    -0.41746272     0.69451590
Ti      0.84747375     2.87182897     8.54305832    -0.16500343     0.41746272    -0.69451590
Ti      2.23286551     0.44875015     1.26534965     0.16326023     0.41673792     0.69357770
Ti      3.92759994     4.39741097     8.54301899    -0.16326023    -0.41673792    -0.69357770
Ti      0.84746084     0.44874830     6.16949446    -0.16528754     0.41680606     0.69459638
Ti      5.31300460     4.39741282     3.63887408     0.16528754    -0.41680606    -0.69459638
O       1.94982715     1.70641563     5.00513536     0.90937176     0.04012362     0.30382095
O       4.21063835     3.13974533     4.80323318    -0.90937176    -0.04012362    -0.30382095
O       1.13044693     1.70643518     0.10098267    -0.90874826     0.04053243     0.30297094
O       5.03001862     3.13972583     9.70738560     0.90874826    -0.04053243    -0.30297094
O       4.21062544     0.71666488     0.10095085    -0.90934733    -0.04058796     0.30337434
O       1.94984006     4.12949608     9.70741742     0.90934733     0.04058796    -0.30337434
O       5.03000572     0.71664538     5.00516719     0.90807129    -0.03982512     0.30310695
O       1.13045973     4.12951563     4.80320135    -0.90807129     0.03982512    -0.30310695
O       0.22383885     2.94770970     2.64948503    -0.32262986    -0.05958637     0.43914638
O       5.93662665     1.89845126     7.15888351     0.32262986     0.05958637    -0.43914638
O       3.30406517     1.89840606     2.25473043    -0.32263217     0.05956091    -0.44019359
O       2.85640033     2.94775496     7.55363794     0.32263217    -0.05956091     0.44019359
O       0.22382595     0.52462931     2.25469911    -0.32326903    -0.05950512    -0.43985961
O       5.93663955     4.32153171     7.55366927     0.32326903     0.05950512     0.43985961
O       2.85638742     0.52467450     7.15891479     0.32214160    -0.05989207    -0.43936930
O       3.30407808     4.32148645     2.64945370    -0.32214160     0.05989207     0.43936930
