# total energy = -19961.68874103 eV

CRYSTAL
PRIMVEC
        7.60600008     0.00000000     0.00000000
        0.00000000     7.60600008     0.00000000
       -1.89786986    -1.89786986     4.85670466
PRIMCOORD
24 1
Ti      3.77763901     6.55529299     1.24503299    -0.25543997     1.10830271    -0.45229604
Ti      3.81241199     2.84925902     1.23674401    -0.98652005    -1.24656589    -0.56929413
Ti      0.01871599     6.71168799     1.16195598     0.20823038    -0.20090788     1.34874440
Ti     -0.01191802     2.89915302     1.20060401     0.70584496     0.23696195    -0.31630314
Ti      5.72440522     2.89995123     3.61029083     0.26481575    -0.35542840     0.68411913
Ti      5.72048222    -0.95579577     3.60358483     0.77390928     0.47195110     0.15562328
Ti      1.90059021     2.81248125     3.63152682    -0.52361821    -0.21850091    -0.20503115
Ti      1.91449820    -1.02902078     3.63251982    -0.86422677     0.34498047     0.93738394
O       3.62543102     4.65628301     0.81992300     0.63849206     1.06580287    -0.53237282
O       3.68249601     0.88167502     0.90818701     0.70442108     0.28044781    -0.41822788
O       0.05025898     4.85868701     0.73173900    -0.35564695    -0.66772808     0.38743608
O       0.01759001     0.99786901     0.70000699    -0.36624684     0.18824416     0.83540701
O       5.91148721     4.81097623     4.11394682    -0.35829184    -0.24513472    -1.32162928
O       5.71609920     1.04048720     4.11809980    -0.25000285    -0.43823801    -1.26471609
O       1.72812123     4.68657222     4.09749380     0.62110394    -0.17441933     0.26765914
O       1.85096021     0.85793523     4.06120383     0.63847251     0.70721638     0.38128626
O       3.78366724     2.96157922     3.25176383     0.05196587    -0.33301532     0.04678047
O       3.79214720    -1.08721779     3.21782483     0.77850410    -0.10706849     0.52316492
O       0.04468722     2.75417624     3.13180284    -1.32380494     0.04893737     0.78037278
O       0.05356724    -0.97960578     3.17937280    -1.12623719     0.31437944     0.15164218
O       5.71872398     6.63801001     1.66503701    -0.22385215     0.08858765    -0.72146158
O       5.65768798     3.00439500     1.65742299     0.50207056    -0.21607893    -0.36849758
O       1.91735798     6.67677801     1.71418900    -0.18644773    -0.16549374    -0.70587607
O       1.83184199     2.96403899     1.61348901     0.93250501    -0.48723220     0.37608620
