# total energy = -39482.88553695 eV

CRYSTAL
PRIMVEC
        7.60629642     0.00000000     0.00000000
       -0.00001693     7.60629642     0.00000000
       -3.80320786    -3.80321633     9.70732590
PRIMCOORD
47 1
Ti      1.90149756     4.67308280     6.11303451     0.00002031    -0.00485887    -0.01068371
Ti      3.83495220     6.65567719     1.16965320    -0.00882120    -0.00003240    -0.00566234
Ti      1.90141680     1.03146814     6.11310128    -0.00000437     0.00496763    -0.01082101
Ti      3.78540888     2.85248044     1.24048744     0.01132340    -0.00002083    -0.00342805
Ti     -1.90169096     4.77144067     6.06083892     0.00002057    -0.01424315    -0.02810962
Ti     -0.03197506     6.65565706     1.16961451     0.00868519    -0.00001286    -0.00571865
Ti     -1.90175604     0.93353209     6.06084689    -0.00004628     0.01409993    -0.02805486
Ti      0.01735638     2.85250917     1.24058087    -0.01118919    -0.00002237    -0.00347228
Ti      3.80879977     0.93433320     8.50232517     0.00599247    -0.00208825     0.01871198
Ti      5.70505514     2.85217799     3.64731742    -0.00004217    -0.00010927     0.00570837
Ti      3.80887979    -2.83616589     8.50229862     0.00617142     0.00211370     0.01878603
Ti      5.70469850    -0.95099312     3.62177287    -0.00007533    -0.00002854     0.02643198
Ti     -0.00560106     0.93435079     8.50232691    -0.00583589    -0.00207720     0.01873898
Ti      1.90192920     2.85211432     3.71693616    -0.00007251     0.00040263     0.00746623
Ti     -0.00547455    -2.83621991     8.50225452    -0.00592537     0.00209854     0.01879091
Ti      1.90149013    -0.95094133     3.47262904    -0.00005991     0.00013215     0.01363457
O       1.90167152     2.85225944     5.69787969     0.00016249     0.00037178     0.01651086
O       3.80009398     4.74835068     0.78695149    -0.00174552    -0.00308121    -0.00422844
O       3.80016141     0.95640831     0.78694966    -0.00176532     0.00305936    -0.00423487
O      -1.90157903     2.85232957     5.68197449     0.00005888     0.00003085    -0.02120261
O       0.00305497     4.74833246     0.78697905     0.00172110    -0.00308635    -0.00428346
O      -1.90161982    -0.95080608     5.61417331     0.00002957    -0.00003342     0.01292263
O       0.00304983     0.95643329     0.78696894     0.00177818     0.00307427    -0.00429040
O       3.78055184     2.85232405     8.87925550    -0.00938299     0.00001825    -0.00306219
O       5.70464095     4.75222662     4.06144280    -0.00000951    -0.00279119    -0.00816711
O       3.84031029    -0.95084280     8.93730314     0.01150209    -0.00007790     0.00249063
O       5.70462675     0.95245473     4.06146113    -0.00002545     0.00256159    -0.00833063
O       0.02250347     2.85232589     8.87919892     0.00942335     0.00002288    -0.00300896
O       1.90122277     4.86667765     4.12759927    -0.00011339    -0.00054276     0.00001774
O      -0.03729838    -0.95085532     8.93730024    -0.01136325    -0.00010927     0.00253305
O       1.90122835     0.83793782     4.12749149    -0.00012701     0.00042269     0.00025634
O       1.90152886     0.91335420     8.09461161    -0.00001723    -0.02245577    -0.01276450
O       3.78274704     2.85237291     3.26958925     0.00253897    -0.00007868     0.00486324
O       1.90157703    -2.81512280     8.09460014     0.00001517     0.02260566    -0.01287789
O       3.82187345    -0.95075865     3.17027017    -0.01014866    -0.00007970     0.00616885
O      -1.90162206     0.98217408     8.05054660     0.00000926     0.00217875    -0.02221100
O       0.02025751     2.85237282     3.26949900    -0.00248549    -0.00006531     0.00485553
O      -1.90157823    -2.88378341     8.05049372     0.00002623    -0.00220729    -0.02209838
O      -0.01885812    -0.95075401     3.17029179     0.00999311    -0.00006453     0.00606086
O       3.78011273     4.88528501     6.46842556    -0.00757010     0.00236284     0.00381706
O       5.70467411     6.65544145     1.58463533     0.00000566     0.00001054     0.01418710
O       3.78009617     0.81933250     6.46844005    -0.00736776    -0.00231117     0.00384714
O       5.70468273     2.85234968     1.67088529    -0.00005091    -0.00007430     0.02437510
O       0.02299134     4.88530589     6.46842616     0.00754156     0.00234870     0.00389651
O       1.90152518     6.65548622     1.56551127    -0.00003471    -0.00001543    -0.00417650
O       0.02294559     0.81930449     6.46843583     0.00730631    -0.00227234     0.00394973
O       1.90157344     2.85232499     1.67791998    -0.00004602    -0.00004217    -0.00813394
