# total energy = -19074.94441674 eV

CRYSTAL
PRIMVEC
        7.60600008     0.00000000     0.00000000
        0.00000000     7.60600008     0.00000000
       -1.89786986    -1.89786986     4.85670466
PRIMCOORD
22 1
Ti      3.85939901     6.80416500     0.95820702     0.57738925    -0.34710420     0.84782518
Ti      3.93616998     3.03743402     1.23894402     0.88859826    -0.30903772     0.29636166
Ti      0.00219101     6.56971497     1.19546300    -1.38536103    -0.05129018    -0.88563301
Ti      0.02827802     2.72011998     1.07066602    -0.53993084    -0.57024441     1.66249006
Ti      5.74983822     2.58553724     3.70721981     0.35327999     1.62577675    -0.89225772
Ti      6.06848521    -1.18180377     3.76912180    -1.59396782     0.31131854    -1.64863721
Ti      1.95993521     2.96811821     3.48806782    -0.34195788    -0.54771228     1.02309915
Ti      1.29871220    -0.62069777     3.79759979     1.09311314    -2.68438593    -0.39682678
O       3.88613702     4.86285100     0.85345702    -0.30779382     0.52932966    -0.65307613
O       3.74354798     1.04962599     0.97269700    -0.66783709    -0.62272887    -0.64158715
O      -0.02905501     4.57430499     0.82429602     0.16424907     0.84191241    -0.80023867
O       7.12738202     0.78142202     0.61381301     1.46618652     0.69870808     1.47345477
O       5.49284721     4.60551623     4.09670781     1.72344117    -0.26297510    -0.58979586
O       5.55284220     0.73823724     3.99516182     0.92591218     0.08983232    -0.09709980
O       1.93931624     4.91763720     3.93383779    -0.31085446     0.19256464     0.96821996
O       2.13286420     0.92735022     4.11363481    -0.27852154     1.92323113    -0.14408236
O       3.96294424     2.71881920     3.19584180    -1.97326662     0.44997587    -0.04628347
O       0.10401820     2.61923524     3.25313784    -0.41305302    -0.08768519     0.12198783
O       5.71392201     6.61518400     1.80354000    -0.54103178    -0.34555896     0.73254870
O       5.78599098     2.88266698     1.59547798    -0.02870098    -0.17753911     0.45826357
O       1.74397200     6.74388800     1.90745300     0.38301044     0.24026299     0.05253923
O       1.89718500     3.17660102     1.68387201     0.80709709    -0.89665045    -0.84127169
