# total energy = -19074.61929634 eV

CRYSTAL
PRIMVEC
        5.17600016     0.00000000     0.00000000
        0.00000000     5.50899976     0.00000000
        0.00000000     0.00000000     9.26300011
PRIMCOORD
22 1
Ti      2.02934199     3.49498200     3.29292699    -0.97949965    -1.18472081     1.17536970
Ti      3.46448599     2.28710402     5.99388101    -0.06276528     0.45153088    -0.77552085
Ti      4.32642201     2.36021600     1.23360298     0.64187640    -1.25937925    -0.23720801
Ti      0.62786902     3.11069898     8.09620798     1.91408160     0.36443961     0.51441931
Ti      1.86995301     0.44118698     1.29732401    -0.97085457     1.23199544    -0.94080402
Ti      3.15436600     5.10934499     8.01691098     0.10597731    -0.25395670     0.08799784
Ti      0.53010601     0.25677702     5.98594902     0.26743159     0.88762279    -1.58185844
Ti      4.55574902     4.89484601     3.34464301     0.80515848     1.69709712     1.83839421
O       3.65349900     3.51110799     4.51561299    -1.24860941    -0.94068909     0.92597235
O       0.96626797     1.99816800     0.26908700    -0.60045643    -0.07059326    -0.80080817
O       4.23264302     3.50427901     8.91208600    -0.84824170     1.00547809     1.05710740
O       3.43080100     0.93563200     0.15716601     0.10738036    -0.59604775    -0.86414115
O       1.68634301     4.73998599     9.14853700    -1.42774620     0.01392510     0.90924809
O       4.21749903     0.72741102     4.79520299     0.74360496    -0.24457345     0.48054270
O       1.15464698     4.78228202     4.32265501    -0.75871997     0.46445170     1.83946327
O       0.18179101     3.45887899     2.43631502     0.82836681    -1.02298988    -0.49474805
O       0.11455301     2.25747999     6.46562798    -0.04860184    -1.22519667     0.47975209
O       2.70489502     2.02615502     2.28438998     0.21763522    -0.47510584     0.14341850
O       2.33265200     3.48722098     7.28319000     0.87203058    -0.79623546    -2.28429951
O       0.00521901     0.70485198     2.10319000     0.98422843    -0.21188829     0.05364660
O       2.38581098     0.66861598     6.59159301    -0.51041507     0.40153781     0.53678740
O       2.97077901     4.65149798     2.34078101    -0.03186138     1.76329714    -2.06273153
