# total energy = -19958.11602024 eV

CRYSTAL
PRIMVEC
        7.60600008     0.00000000     0.00000000
        0.00000000     7.60600008     0.00000000
       -1.89786986    -1.89786986     4.85670466
PRIMCOORD
24 1
Ti      3.66068899     6.53686503     1.31617902     1.20606946     0.73347121     0.16228603
Ti      3.87876801     2.88535398     1.30061100    -2.82652814    -0.18060284    -1.65600137
Ti     -0.02413202     6.62119101     1.12865099    -0.81794304     0.70422979     0.86592061
Ti      0.11059799     2.97191198     1.11067097     0.02678988    -1.18719447     0.93439040
Ti      5.78762021     2.85894322     3.50054280     1.10399483     1.37648018     1.85724246
Ti      5.71678221    -0.94632477     3.71226080     1.44167850    -0.89029699    -0.44136987
Ti      1.86006322     2.95942520     3.63402782    -0.85672583    -0.77110755     0.88275954
Ti      1.85558924    -0.98906678     3.71406281    -1.27199308     0.85357366    -0.19050056
O       3.69392899     4.70501600     0.85830301     0.66779441    -0.42668990    -1.49676569
O       3.52305401     0.79095102     0.80049198     1.03825452     3.03107747     1.04098246
O       0.03142397     4.76987800     0.81606699    -0.93535714     0.12234316    -1.37469738
O       0.03103598     0.97827702     0.86656601    -0.44361445    -0.58495473    -1.42268987
O      -1.39719876     4.71160722     4.01955382    -1.59532177    -0.31933422     0.04993290
O      -1.55631479     0.95093221     4.13840782    -1.72955603     0.01568733    -2.20263558
O       1.53242424     4.79023323     4.26540983     0.72859743    -2.67172402    -2.16797504
O       1.60013421     0.94006222     3.93561080     2.46336611    -0.54318817     1.13216307
O       3.83985824     3.16546825     3.35848480    -0.50930436    -1.36607852    -1.41614461
O       3.89683825    -1.25603078     3.37918283    -1.30322068     0.90499317    -0.21636741
O       0.05469825     2.63135621     3.23524879    -0.50611182     1.41614975    -1.47953415
O      -0.01466879    -1.04543379     3.02045182    -0.50644838     0.63568132     1.34360965
O       5.63864898     6.60609199     1.48763298     0.05913797     0.32556992     0.71280211
O       5.62858900     3.08507299     1.47466798     1.70725478    -1.14261512     1.26190484
O       1.83124698     6.39995798     1.68553702     1.33094799     0.48014881     0.85779078
O       1.86886799     3.03459102     1.35641200     1.52823909    -0.51561848     2.96289590
