# total energy = -19938.05086819 eV

CRYSTAL
PRIMVEC
        4.66399742     0.00000000     0.00000000
        0.49517796     4.93914346     0.00000000
        0.00000000     0.00000000     8.35800795
PRIMCOORD
24 1
Ti      1.98391679     2.92693187     3.10076141     1.41741113     0.65119537    -0.67185804
Ti      3.17525873     2.01221163     5.25724682    -1.41741113    -0.65119537     0.67185804
Ti      4.22413275     2.01221331     1.07820932    -1.96995580    -1.01667756     2.08428252
Ti      0.93504278     2.92693043     7.27979906     1.96995580     1.01667756    -2.08428252
Ti      1.73632791     0.45736018     1.07824285     1.41739108     0.65120874     0.67177500
Ti      3.42284762     4.48178351     7.27976553    -1.41739108    -0.65120874    -0.67177500
Ti      0.68745383     0.45735836     5.25721334     1.96994732     1.01686499     2.08463785
Ti      4.47172165     4.48178528     3.10079494    -1.96994732    -1.01686499    -2.08463785
O       1.65054526     1.73915639     4.26502759    -2.64642101    -2.10859617    -0.51753369
O       3.50863026     3.19998716     4.09298064     2.64642101     2.10859617     0.51753369
O       1.03020395     1.73917636     0.08605038     2.42519678    -2.08659600    -0.36863051
O       4.12897162     3.19996723     8.27195766    -2.42519678     2.08659600     0.36863051
O       3.26104137     0.73041528     0.08602328     2.64625929     2.10848432    -0.51754860
O       1.89813415     4.20872827     8.27198476    -2.64625929    -2.10848432     0.51754860
O       3.88138273     0.73039535     4.26505473    -2.42522841     2.08630932    -0.36886988
O       1.27779274     4.20874820     4.09295355     2.42522841    -2.08630932     0.36886988
O       0.47064910     3.00426715     2.25770652    -1.23719730    -0.71515544    -1.81866253
O       4.68852638     1.93487640     6.10030172     1.23719730     0.71515544     1.81866253
O       2.69543991     1.93483040     1.92132418    -0.24469995    -1.78912645    -0.76473610
O       2.46373561     3.00431310     6.43668396     0.24469995     1.78912645     0.76473610
O       0.22306021     0.53469527     1.92129746    -1.23722481    -0.71531125     1.81842187
O       4.93611526     4.40444823     6.43671063     1.23722481     0.71531125    -1.81842187
O       2.21614673     0.53474127     6.10032839     0.24467244     1.78906706    -0.76450701
O       2.94302880     4.40440228     2.25767985    -0.24467244    -1.78906706     0.76450701
