# total energy = -19517.59322216 eV

CRYSTAL
PRIMVEC
        5.93400000     0.00000000     0.00000000
        0.00000000     9.29699974     0.00000000
        0.00000000     0.00000000     4.64899994
PRIMCOORD
23 1
Ti      4.40198101     7.02624201     2.20986002     1.01887508    -0.14787165    -0.30722406
Ti      4.56309601     2.37492199     2.35223098    -0.74629382    -0.96783738    -0.08697480
Ti      1.41993502     6.98435303     2.26032998    -1.43786941     0.29818431     0.10683272
Ti      1.49720098     2.35159798     2.32991002     0.37215961    -0.90364000     0.49500928
Ti      2.97350100     4.48248998     0.15092902    -0.42083292     0.30680420     0.62660610
Ti      2.98057499     0.13454099     4.61266399    -0.83648276     0.03852028    -0.39101737
Ti      0.00371001     4.55173500     4.63570601     0.21179830     1.52963571    -0.62762246
Ti      5.88381802     9.29342298     4.55534700     0.80259946    -0.36991735     0.13722600
O       4.34237300     5.50731999     0.94764199     0.43614230     0.24628452    -0.12197884
O       4.54770600     0.93962501     0.93096899    -0.65594728    -0.28583453    -0.19509615
O       1.50543900     5.53018500     0.98954601    -0.00424592    -0.06983659    -0.35913619
O       1.49822499     1.12333302     0.95602300     0.45079734    -1.82095312    -1.34052946
O       4.52725600     8.39771000     3.54425300    -0.64112332     0.56809214     1.34339650
O       4.35528202     3.50656400     3.83335899     0.72680742     1.51813465     0.82279240
O       1.50956701     8.45413802     3.67576800     0.17144636    -0.41765555     0.29106056
O       1.53525698     3.73857398     3.78439401    -0.46505951     0.21569275     0.27762139
O       3.02095999     1.39605600     3.18043301    -0.03360073    -0.50698111     0.76521792
O       5.87079798     6.00184799     3.37828000     0.10519004     0.21873385    -0.76011222
O       0.06910700     1.40003203     3.32688001    -0.46379402     1.00554185    -1.03625446
O       2.88264603     7.84152598     1.36017799     0.53692419    -0.17381872     0.50823838
O       2.91893197     3.34721200     1.56459901     1.12665499    -0.52389769    -0.08479836
O       5.88610602     7.70115298     1.31266698     0.43137034     0.77641636    -0.05540292
O       0.05889298     3.39218302     1.56378598    -0.68551601    -0.53379670    -0.00785421
