# total energy = -4987.91003784 eV

CRYSTAL
PRIMVEC
        3.61357805     0.00000000     0.00000000
        0.00000000     3.77462336     0.00000000
        0.00000000    -0.00006597     4.91487373
PRIMCOORD
6 1
Ti      1.80678886     1.88727864     2.45743681     0.00000000     0.00000000     0.00000000
Ti      0.00000000     0.00000000     0.00000000     0.00000000     0.00000000     0.00000000
O       1.80678886     0.73560563     0.95783648     0.00000000    -0.11745832     0.19085614
O       1.80678886     3.03895165     3.95703709     0.00000000     0.11745832    -0.19085614
O       0.00000000     1.15164662     3.41527437     0.00000000     0.11682969     0.19223220
O       0.00000000     2.62291067     1.49959926     0.00000000    -0.11682969    -0.19223220
