# total energy = -4990.37387887 eV

CRYSTAL
PRIMVEC
        2.98257836     0.00000000     0.00000000
        0.23351697     4.66741520     0.00000000
       -0.00000129    -0.00006065     4.67471526
PRIMCOORD
6 1
Ti      1.60804691     2.33367712     2.33735752     0.00000000     0.00000000     0.00000000
Ti      0.00000000     0.00000000     0.00000000     0.00000000     0.00000000     0.00000000
O       1.53679786     0.90959854     0.91103309    -0.20054304    -0.03018116    -0.03462429
O       1.67929590     3.75775570     3.76368191     0.20054304     0.03018116     0.03462429
O       0.07124841     1.42405399     3.24839156     0.20033298     0.03008089    -0.03450216
O       0.16226716     3.24330045     1.42632344    -0.20033298    -0.03008089     0.03450216
