# total energy = -4931.25113897 eV

CRYSTAL
PRIMVEC
        5.32440739     0.00000000     0.00000000
       -0.00000695     2.28188903     0.00000000
       -2.66223424    -1.14102707     5.77817000
PRIMCOORD
6 1
Ti     -0.00022751     1.71148763     1.44454245    -0.03192360    -0.02708530    59.92186248
Ti      2.66239344    -0.57062561     4.33362745     0.03192360     0.02708530   -59.92186248
O       0.00005657     0.57045828     0.94121667     0.03142841     0.02536754   -52.81566187
O       2.66210921     0.57040369     4.83695328    -0.03142841    -0.02536754    52.81566187
O      -0.00002226    -0.57049958     3.83030167    -0.00140845     0.00017869    -0.93445828
O       2.66218798     1.71136149     1.94786828     0.00140845    -0.00017869     0.93445828
