# total energy = -19856.32568675 eV

CRYSTAL
PRIMVEC
        7.06490217     0.00000000     0.00000000
        0.00002196     2.50639746     0.00000000
        0.00000000     0.00000000    11.23966347
PRIMCOORD
24 1
Ti      2.56070008     1.48528873     4.16983508    -1.35654641     0.81161298    -1.53578297
Ti      4.50422376     1.02110849     7.06982873     1.35654641    -0.81161298     1.53578297
Ti      6.09303066     1.02110930     1.44995192    -1.35536422    -0.81251775     1.53744390
Ti      0.97189323     1.48528802     9.78971198     1.35536422     0.81251775    -1.53744390
Ti      2.56068939     0.23209005     1.44999699    -1.35654641     0.81161298     1.53578297
Ti      4.50423450     2.27430726     9.78966691     1.35654641    -0.81161298    -1.53578297
Ti      0.97188249     0.23208919     7.06978365     1.35536422     0.81251775     1.53744390
Ti      6.09304140     2.27430812     4.16988015    -1.35536422    -0.81251775    -1.53744390
O       2.23609377     0.88254508     5.73551437    11.23369330    -1.66034679     6.20769794
O       4.82883013     1.62385219     5.50414944   -11.23369330     1.66034679    -6.20769794
O       1.29641387     0.88255525     0.11571865   -11.23476467    -1.66000252     6.20876084
O       5.76851007     1.62384201    11.12394481    11.23476467     1.66000252    -6.20876084
O       4.82881938     0.37065341     0.11568215   -11.23369330     1.66034679     6.20769794
O       2.23610451     2.13574380    11.12398132    11.23369330    -1.66034679    -6.20769794
O       5.76849932     0.37064328     5.73555082    11.23476467     1.66000252     6.20876084
O       1.29642447     2.13575398     5.50411298   -11.23476467    -1.66000252    -6.20876084
O       0.25669742     1.52453301     3.03611356     3.50009725    -0.99493913     7.49372488
O       6.80822647     0.98186421     8.20355020    -3.50009725     0.99493913    -7.49372488
O       3.78915785     0.98184097     2.58375405     3.50231200     0.99535488    -7.49504643
O       3.27576604     1.52455629     8.65590957    -3.50231200    -0.99535488     7.49504643
O       0.25668668     0.27133428     2.58371817     3.50009725    -0.99493913    -7.49372488
O       6.80823721     2.23506298     8.65594544    -3.50009725     0.99493913     7.49372488
O       3.27575535     0.27135751     8.20358602    -3.50231200    -0.99535488    -7.49504643
O       3.78916854     2.23503970     3.03607769     3.50231200     0.99535488     7.49504643
