# total energy = -19518.08298320 eV

CRYSTAL
PRIMVEC
        7.60600008     0.00000000     0.00000000
        0.00000000     7.60600008     0.00000000
       -1.89786986    -1.89786986     4.85670466
PRIMCOORD
23 1
Ti      3.82526200     6.66776300     1.27366498    -0.35514404    -1.43729579     0.14629608
Ti      3.64008002     2.74241501     1.26834002     1.34642140     0.77895096     0.02125635
Ti     -0.02447799     6.69461499     1.16932498     0.62515162     0.53128010    -1.19539321
Ti     -0.00433200     2.94742399     1.04232599    -0.82054474    -0.20636144     2.44399978
Ti      5.63804720     2.88888423     3.51181984     0.10740890     2.59554786     0.76897559
Ti      5.77170123    -0.77300376     3.62970783    -0.78926340    -2.89430476     0.04366043
Ti      1.83208424     2.72192923     3.75756483     1.36264764    -0.05158869     0.63907492
Ti      1.88383222    -1.09537976     3.66681284     1.03682345     0.41824459    -0.56700225
O       3.90360299     4.66891299     0.78385603    -1.21980044    -0.39898265     1.25837420
O       4.01247200     0.86753800     0.74981199    -1.01144870     0.58906592     1.03217746
O      -0.03276099     4.86348998     0.77130198     0.31137382    -0.71399947     0.00894230
O      -0.17920598     0.98151997     0.72256502     0.52473201     0.64887392    -0.25686616
O       5.92611225     4.85257925     3.90492582    -0.07719149    -1.20311397     0.98499384
O       5.82580823     1.06478522     4.06413780     0.13870207     0.01418787    -1.48270098
O       1.90539021     4.63260122     4.07490983    -0.76544469     0.56192200    -0.22457489
O       2.11272324     0.85023221     4.16864184    -0.93687152     0.37271754    -0.35720247
O       3.82185024     2.81371423     3.23250082    -0.88875716    -0.21276761    -0.31960007
O       3.84592023    -1.13439976     3.29140280    -0.03535834     0.87809042    -1.26967883
O       0.06070123    -0.71455677     3.41405281    -0.44254178    -0.48508147    -1.36062470
O       5.68728302     6.65490600     1.47648502     1.11345649     0.11191476     1.55979656
O       5.74181902     2.93563403     1.67845901     0.90278536    -0.17638623    -0.54504322
O       1.88806098     6.67574400     1.59611400    -0.03218045    -0.00438502     0.72383291
O       1.74723898     2.70674798     1.84604399    -0.09495499     0.28347143    -2.05269342
