# total energy = -19939.31557579 eV

CRYSTAL
PRIMVEC
        4.84113538     0.00000000     0.00000000
        1.51174016     4.92566712     0.00000000
        0.00000000     0.00000000     8.76593319
PRIMCOORD
24 1
Ti      2.65053452     2.91894580     3.25209869     3.25841450    -2.13562387     0.92918854
Ti      3.70234093     2.00672143     5.51383454    -3.25841450     2.13562387    -0.92918854
Ti      4.79105137     2.00672313     1.13083290    -6.05813810     0.61975668     2.34934896
Ti      1.56182417     2.91894429     7.63510043     6.05813810    -0.61975668    -2.34934896
Ti      1.89466456     0.45611232     1.13086805     3.25891226    -2.13491630    -0.93034271
Ti      4.45821092     4.46955506     7.63506528    -3.25891226     2.13491630     0.93034271
Ti      0.80595410     0.45611048     5.51379940     6.05863921    -0.62008372     2.35450865
Ti      5.54692138     4.46955690     3.25213384    -6.05863921     0.62008372    -2.35450865
O       2.06455930     1.73441116     4.47318861    -1.64722002    -0.54215150    -0.99574646
O       4.28831617     3.19125612     4.29274463     1.64722002     0.54215150     0.99574646
O       1.42066158     1.73443104     0.09025021     1.68818233    -0.94122568    -0.79516383
O       4.93221394     3.19123629     8.67568278    -1.68818233     0.94122568     0.79516383
O       3.53244618     0.72842249     0.09022177     1.64701793     0.54193655    -0.99567318
O       2.82042929     4.19724479     8.67571122    -1.64701793    -0.54193655     0.99567318
O       4.17634395     0.72840266     4.47321705    -1.68759766     0.94104262    -0.79439198
O       2.17653148     4.19726467     4.29271619     1.68759766    -0.94104262     0.79439198
O       1.09541571     2.99607000     2.36789725    -0.53711085    -2.25015704    -2.55164343
O       5.25745976     1.92959728     6.39803599     0.53711085     2.25015704     2.55164343
O       3.18866693     1.92955135     2.01509725     1.64829757    -2.71071738    -2.97601650
O       3.16420854     2.99611593     6.75083584    -1.64829757     2.71071738     2.97601650
O       0.33954567     0.53323639     2.01506925    -0.53733813    -2.25007477     2.55156578
O       6.01332975     4.39243090     6.75086384     0.53733813     2.25007477    -2.55156578
O       2.40833855     0.53328231     6.39806394    -1.64788979     2.71088553    -2.97588615
O       3.94453692     4.39238497     2.36786925     1.64788979    -2.71088553     2.97588615
