# total energy = -4977.79918089 eV

CRYSTAL
PRIMVEC
        3.27070746     0.00000000     0.00000000
       -0.00000728     3.27070746     0.00000000
       -1.63537938    -1.63538302     4.17415014
PRIMCOORD
6 1
Ti     -0.00014403     2.45315448     1.04353742     0.00532116    -0.00536564     0.00214019
Ti      1.63546474    -0.81783013     3.13061244    -0.00532116     0.00536564    -0.00214019
O       0.00003267     0.81767131     0.67993490     0.00143056     0.00566723     4.32969716
O       1.63528795     0.81765295     3.49421501    -0.00143056    -0.00566723    -4.32969716
O      -0.00001847    -0.81765711     2.76700993     0.00571274     0.00141591     4.33244979
O       1.63533904     2.45298132     1.40713998    -0.00571274    -0.00141591    -4.33244979
