# total energy = -19916.82661054 eV

CRYSTAL
PRIMVEC
        6.41572249     0.00000000     0.00000000
        1.68083753     6.61815986     0.00000000
        0.00000000     0.00000000    11.57491215
PRIMCOORD
24 1
Ti      3.32145366     3.92191560     4.29421007    -0.24284670    -1.85917516     0.70426758
Ti      4.77510654     2.69624470     7.28070273     0.24284670     1.85917516    -0.70426758
Ti      6.21792171     2.69624699     1.49320012     0.10660158    -0.44067388    -0.23227612
Ti      1.87863853     3.92191357    10.08171281    -0.10660158     0.44067388     0.23227612
Ti      2.48103503     0.61283572     1.49324653    -0.24284670    -1.85917516    -0.70426758
Ti      5.61552521     6.00532484    10.08166640     0.24284670     1.85917516     0.70426758
Ti      1.03821977     0.61283318     7.28065632    -0.10660158     0.44067388    -0.23227612
Ti      7.05834046     6.00532731     4.29425648     0.10660158    -0.44067388     0.23227612
O       2.62246815     2.33036674     5.90658934     1.80191384     2.00002024    -0.59889602
O       5.47409199     4.28779357     5.66832345    -1.80191384    -2.00002024     0.59889602
O       1.76914038     2.33039345     0.11917024    -0.77135952     0.13317471     0.94819209
O       6.32741991     4.28776697    11.45574223     0.77135952    -0.13317471    -0.94819209
O       4.63367333     0.97871349     0.11913268    -1.80191384    -2.00002024    -0.59889602
O       3.46288687     5.63944681    11.45577979     1.80191384     2.00002024     0.59889602
O       5.48700125     0.97868683     5.90662690     0.77135952    -0.13317471     0.94819209
O       2.60955890     5.63947354     5.66828590    -0.77135952     0.13317471    -0.94819209
O       1.25547871     4.02554014     3.12667272     0.51464685     1.60478240     1.71705943
O       6.84108144     2.59262016     8.44824008    -0.51464685    -1.60478240    -1.71705943
O       4.09941331     2.59255845     2.66082052     0.64453441     1.64878711     0.84765832
O       3.99714690     4.02560192     8.91409209    -0.64453441    -1.64878711    -0.84765832
O       0.41506005     0.71646007     2.66078355     0.51464685     1.60478240    -1.71705943
O       7.68150016     5.90170030     8.91412906    -0.51464685    -1.60478240     1.71705943
O       3.15672824     0.71652178     8.44827698    -0.64453441    -1.64878711     0.84765832
O       4.93983196     5.90163852     3.12663575     0.64453441     1.64878711    -0.84765832
