# total energy = -19939.39628261 eV

CRYSTAL
PRIMVEC
        5.92978953     0.00000000     0.00000000
        1.24975156     6.18611088     0.00000000
        0.00000000     0.00000000    10.66701315
PRIMCOORD
24 1
Ti      2.88986502     3.66588358     3.95738593     0.03830997    -1.79021711     0.82861646
Ti      4.28967578     2.52022745     6.70962764    -0.03830997     1.79021711    -0.82861646
Ti      5.62321059     2.52022967     1.37607823    -0.23470144    -0.29404304    -0.12889511
Ti      1.55633024     3.66588160     9.29093546     0.23470144     0.29404304     0.12889511
Ti      2.26498939     0.57282837     1.37612100     0.03830997    -1.79021711    -0.82861646
Ti      4.91455144     5.61328284     9.29089269    -0.03830997     1.79021711     0.82861646
Ti      0.93145451     0.57282598     6.70958487     0.23470144     0.29404304    -0.12889511
Ti      6.24808632     5.61328523     3.95742871    -0.23470144    -0.29404304     0.12889511
O       2.31687449     2.17823483     5.44329533     1.63016100     1.83060608    -0.53823853
O       4.86266632     4.00787620     5.22371825    -1.63016100    -1.83060608     0.53823853
O       1.52817737     2.17825974     0.10982289    -0.76111110     0.25732124     0.75946045
O       5.65136350     4.00785134    10.55719038     0.76111110    -0.25732124    -0.75946045
O       4.23779066     0.91482081     0.10978827    -1.63016100    -1.83060608    -0.53823853
O       2.94175014     5.27129022    10.55722501     1.63016100     1.83060608     0.53823853
O       5.02648784     0.91479595     5.44332995     0.76111110    -0.25732124     0.75946045
O       2.15305291     5.27131515     5.22368362    -0.76111110     0.25732124    -0.75946045
O       0.97561265     3.76274324     2.88142648     0.38902785     1.09503787     1.24221353
O       6.20392816     2.42336779     7.78558710    -0.38902785    -1.09503787    -1.24221353
O       3.66991952     2.42331001     2.45211424     0.72980790     1.24584315     0.42414939
O       3.50962128     3.76280102     8.21489915    -0.72980790    -1.24584315    -0.42414939
O       0.35073699     0.66968785     2.45208016     0.38902785     1.09503787    -1.24221353
O       6.82880382     5.51642325     8.21493324    -0.38902785    -1.09503787     1.24221353
O       2.88474562     0.66974556     7.78562112    -0.72980790    -1.24584315     0.42414939
O       4.29479518     5.51636547     2.88139239     0.72980790     1.24584315    -0.42414939
