# total energy = -19519.09178911 eV

CRYSTAL
PRIMVEC
        7.60600008     0.00000000     0.00000000
        0.00000000     7.60600008     0.00000000
       -1.89786986    -1.89786986     4.85670466
PRIMCOORD
23 1
Ti      3.80696998     6.53285000     1.22605701    -0.16833353     0.78166964     0.25078010
Ti      3.75040099     2.83676202     1.21588797     0.53452278    -0.35322060     0.55035281
Ti      0.03171698     6.73127099     1.26952998     0.13536940    -0.59993706    -0.73535326
Ti     -0.03926299     2.93167800     1.06282599    -0.36714827    -0.22852282     1.08960281
Ti      5.65767423     2.89984725     3.65807681    -0.57375988     0.88822160    -0.31172041
Ti      5.75040121    -0.95644978     3.61526880    -0.73692343    -0.95135120     0.26750333
Ti      2.01395521     2.85620923     3.63318479     0.24206482    -0.48136983     0.38892038
Ti      1.90077023    -1.01940176     3.70331781     0.50707033     0.24259319    -0.31254753
O       3.66582597     4.70105199     0.74139299    -0.08322073     0.55955556     1.12075380
O       3.74850198     0.89897499     0.76527799     0.13507758     0.41140443     0.36397990
O      -0.01512002     4.82222400     0.71760600     0.45710657    -0.07131831     0.85779361
O      -0.05813002     0.95167999     0.83175202     0.24467938     0.07896015    -0.80145043
O       5.74825720     4.74516521     3.89514081     0.55272516     0.71460548     0.79075824
O       5.73663324     1.00117923     4.08114280     0.48185679    -0.91694520    -1.54650370
O       1.87616121     4.68154424     3.97474780    -0.38003593     0.59707825     0.83821722
O       1.83145124     0.97810324     4.12317180    -0.21626817    -0.95325459    -0.53075611
O       3.81439921     2.99248724     3.39365879    -0.12146924    -0.81499141    -1.41037273
O       3.82639423    -1.04685680     3.30347381     0.03047298     0.31075393    -0.91915841
O       0.03805123    -1.20593378     3.20758679    -0.60742875     1.24999292    -0.26754241
O       5.70215798     6.62646198     1.50454998    -0.27283091     0.12336697     1.12010871
O       5.74802399     2.88382598     1.66984199    -0.09437855    -0.05223532    -0.46317335
O       1.90982599     6.74900599     1.61675699     0.22575220    -0.29441225     0.34069366
O       1.76581299     2.88632100     1.75586801     0.07509938    -0.24064378    -0.68088648
