# total energy = -4990.34613359 eV

CRYSTAL
PRIMVEC
        2.99741706     0.00000000     0.00000000
        0.23467875     4.69063617     0.00000000
       -0.00000130    -0.00006095     4.69797255
PRIMCOORD
6 1
Ti      1.61604714     2.34528745     2.34898617     0.00000000     0.00000000     0.00000000
Ti      0.00000000     0.00000000     0.00000000     0.00000000     0.00000000     0.00000000
O       1.54444363     0.91412391     0.91556559    -0.17009448    -0.08070104    -0.08640350
O       1.68765061     3.77645100     3.78240670     0.17009448     0.08070104     0.08640350
O       0.07160288     1.43113884     3.26455271     0.16971395     0.08371592    -0.08934433
O       0.16307446     3.25943628     1.43341957    -0.16971395    -0.08371592     0.08934433
