# total energy = -4989.68202124 eV

CRYSTAL
PRIMVEC
        3.75608918     0.00000000     0.00000000
        0.92456744     3.64051932     0.00000000
       -2.34036251    -1.82028626     4.83209123
PRIMCOORD
6 1
Ti      0.69330361     2.73052891     1.20802273     0.00100556    -0.00100556     0.00000000
Ti      1.64699067    -0.91029571     3.62406819    -0.00100556     0.00100556     0.00000000
O       0.23118125     0.91012465     0.78710812    -0.00013833     0.00002905    -0.44220240
O       2.10911287     0.91010847     4.04498280     0.00013833    -0.00002905     0.44220240
O      -0.23115441    -0.91010377     3.20315358     0.00002905    -0.00013833    -0.44220240
O       2.57144852     2.73033683     1.62893734    -0.00002905     0.00013833     0.44220240
