# total energy = -19938.70105838 eV

CRYSTAL
PRIMVEC
        5.75609031     0.00000000     0.00000000
        2.62398712     5.53581699     0.00000000
        0.00000000     0.00000000    10.58681039
PRIMCOORD
24 1
Ti      3.64127817     3.28051999     3.92763112     1.20598307    -3.27875836     0.88882092
Ti      4.73879907     2.25529692     6.65917933    -1.20598307     3.27875836    -0.88882092
Ti      6.03327163     2.25529880     1.36573182    -2.88085583    -0.66705394     0.83649561
Ti      2.34680572     3.28051833     9.22107880     2.88085583     0.66705394    -0.83649561
Ti      2.32928474     0.51261158     1.36577425     1.20598307    -3.27875836    -0.88882092
Ti      6.05079253     5.02320550     9.22103637    -1.20598307     3.27875836     0.88882092
Ti      1.03481215     0.51260954     6.65913690     2.88085583     0.66705394     0.83649561
Ti      7.34526518     5.02320753     3.92767361    -2.88085583    -0.66705394    -0.83649561
O       2.74578934     1.94925524     5.40236831     1.44636228     1.99336725    -1.10031583
O       5.63428790     3.58656167     5.18444219    -1.44636228    -1.99336725     1.10031583
O       1.98020092     1.94927761     0.10899716     0.56074598    -1.04331574     1.21364213
O       6.39987640     3.58653941    10.47781306    -0.56074598     1.04331574    -1.21364213
O       4.32229445     0.81865315     0.10896277    -1.44636228    -1.99336725    -1.10031583
O       4.05778280     4.71716382    10.47784739     1.44636228     1.99336725     1.10031583
O       5.08788294     0.81863083     5.40240265    -0.56074598     1.04331574     1.21364213
O       3.29219426     4.71718615     5.18440780     0.56074598    -1.04331574    -1.21364213
O       1.80518974     3.36719774     2.85976161     0.61658111     2.03023457     1.91754179
O       6.57488744     2.16861919     7.72704889    -0.61658111    -2.03023457    -1.91754179
O       4.11509351     2.16856768     2.43367729     1.25445738     1.26728411     0.58587467
O       4.26498373     3.36724924     8.15313299    -1.25445738    -1.26728411    -0.58587467
O       0.49319628     0.59928916     2.43364347     0.61658111     2.03023457    -1.91754179
O       7.88688090     4.93652777     8.15316681    -0.61658111    -2.03023457     1.91754179
O       2.95299027     0.59934066     7.72708260    -1.25445738    -1.26728411     0.58587467
O       5.42708697     4.93647625     2.85972779     1.25445738     1.26728411    -0.58587467
