# total energy = -19902.76981571 eV

CRYSTAL
PRIMVEC
        6.71101773     0.00000000     0.00000000
        3.05930296     6.45420137     0.00000000
        0.00000000     0.00000000    12.34314760
PRIMCOORD
24 1
Ti      4.24536118     3.82475372     4.57921969    -0.20638356    -2.06898959     0.39855610
Ti      5.52495929     2.62944757     7.76392797     0.20638356     2.06898959    -0.39855610
Ti      7.03418305     2.62944975     1.59230484    -0.17921444    -1.31854395     0.33430061
Ti      2.73613754     3.82475179    10.75084303     0.17921444     1.31854395    -0.33430061
Ti      2.71570986     0.59765314     1.59235431    -0.20638356    -2.06898959    -0.39855610
Ti      7.05461065     5.85654835    10.75079356     0.20638356     2.06898959     0.39855610
Ti      1.20648606     0.59765076     7.76387850     0.17921444     1.31854395     0.33430061
Ti      8.56383452     5.85655071     4.57926923    -0.17921444    -1.31854395    -0.33430061
O       3.20131199     2.27263399     6.29861375     1.77526126     1.98245780    -0.81953764
O       6.56900847     4.18156729     6.04453399    -1.77526126    -1.98245780     0.81953764
O       2.30871352     2.27266007     0.12707964    -0.03042053    -1.01320554     1.73281002
O       7.46160705     4.18154134    12.21606776     0.03042053     1.01320554    -1.73281002
O       5.03935712     0.95446658     0.12703954    -1.77526126    -1.98245780    -0.81953764
O       4.73096336     5.49973478    12.21610779     1.77526126     1.98245780     0.81953764
O       5.93195568     0.95444056     6.29865378     0.03042053     1.01320554     1.73281002
O       3.83836473     5.49976081     6.04449389    -0.03042053    -1.01320554    -1.73281002
O       2.10466823     3.92581119     3.33419211     0.64040136     2.99267212     2.80714690
O       7.66565217     2.52839012     9.00895562    -0.64040136    -2.99267212    -2.80714690
O       4.79778183     2.52833005     2.83742098     0.51866498     2.16472825     1.86073710
O       4.97253864     3.92587123     9.50572648    -0.51866498    -2.16472825    -1.86073710
O       0.57501686     0.69871040     2.83738156     0.64040136     2.99267212    -2.80714690
O       9.19530354     5.75549090     9.50576591    -0.64040136    -2.99267212     2.80714690
O       3.44288727     0.69877045     9.00899492    -0.51866498    -2.16472825     1.86073710
O       6.32743319     5.75543084     3.33415268     0.51866498     2.16472825    -1.86073710
