# total energy = -4988.28061924 eV

CRYSTAL
PRIMVEC
        3.06768415     0.00000000     0.00000000
        0.00000000     3.93267372     0.00000000
        0.00000000    -0.00005775     4.41377529
PRIMCOORD
6 1
Ti      1.53384208     1.96630794     2.20688774     0.00000000     0.00000000     0.00000000
Ti      0.00000000     0.00000000     0.00000000     0.00000000     0.00000000     0.00000000
O       1.53384208     0.76640892     0.86017985     0.00000000    -0.13781427    -0.34114104
O       1.53384208     3.16620695     3.55359564     0.00000000     0.13781427     0.34114104
O       0.00000000     1.19987565     3.06706839     0.00000000     0.13781581    -0.34124208
O       0.00000000     2.73274022     1.34670710     0.00000000    -0.13781581     0.34124208
