# total energy = -39033.82636717 eV

CRYSTAL
PRIMVEC
        7.60600008     0.00000000     0.00000000
        0.00000000     7.60600008     0.00000000
       -3.79573973    -3.79573973     9.71340985
PRIMCOORD
46 1
Ti      1.97831147     4.68567643     6.20437661     0.37252959     1.53489234    -0.92885070
Ti      3.65791599     6.81027900     1.31757499     0.75798798     0.83461511     0.71976568
Ti      1.98758144     0.68469144     6.08168163     0.57223959    -1.20854183    -0.43494777
Ti      3.73853202     2.81744202     1.04634699     0.06594959     0.50521425     0.99809927
Ti     -1.82288053     4.64809548     6.12892964    -0.38271528     1.06827396     0.82560261
Ti     -0.21962898     6.63912202     1.31434997    -0.62639861     1.32354449     1.03433744
Ti     -1.71811354     0.96793044     5.98587562    -0.46453115    -0.15227441    -0.89354687
Ti      0.09758499     2.90201000     1.11491699    -1.82713251    -0.70956329     0.11158180
Ti      3.95155645     1.14232847     8.39661661     0.16068578    -2.58116716    -0.51991170
Ti      5.64642498     2.86396797     3.39945302    -0.35616245    -1.67814192     0.02904885
Ti      3.72378745    -2.85044257     8.54221063     2.10449448     2.31838181     0.45080017
Ti      5.62442703    -1.04137802     3.71654603    -1.22099575     1.57684067    -0.76826519
Ti      0.20848546     1.06271344     8.43402664    -1.50709330    -1.45524082     0.02166978
Ti      1.84913402     2.68212097     3.60190501    -0.03186909    -0.34069264    -0.30879269
Ti      0.05867745    -2.88007454     8.48257664    -1.66970715     1.18149330     0.84220243
Ti      1.78755202    -1.12321099     3.60333702     0.60583286     0.54134289     2.16769582
O       1.64557244    -1.12514254     5.83562960     0.33787599     0.71624636    -1.70465051
O       3.42705199     1.08528502     0.65958298     0.08189738    -1.94599980     0.23131889
O      -1.94578057     2.82075547     5.71117061     0.02728893     1.09482884    -0.47529482
O       7.18609598     4.80147702     0.96659400     1.25403212     0.35179595    -0.49962904
O      -1.60733653    -1.09373556     5.49073362    -0.20028670     1.11314873     2.34255301
O       0.19000099     0.88873298     0.86281298    -0.97521542     1.77982728    -1.24609358
O       3.72566343     2.92968544     8.96285363    -0.06186308    -1.09311854    -0.68816784
O       5.78476900     4.76363498     3.80391398    -0.59130998    -2.51462544     0.57553497
O       3.99362143    -0.82160055     8.95400764    -0.07676160     0.16095575     0.49834143
O       5.53875497     0.98605698     3.91182402     0.45643474     0.18053830     2.13557142
O      -0.02102056     2.79872746     9.08645361     0.76762473     0.44657379    -0.38651562
O       2.02478700     4.39819300     4.23494399    -0.39082994     1.65808319     0.84945218
O      -0.04613055    -0.88027858     8.84144661     0.25811443     1.33484115     0.11197261
O       2.00957601     0.91458101     4.20042099    -0.21532586    -0.39755749     0.17456434
O       1.96963143     0.73350746     7.99364761     1.38436884     1.01584426     1.31891573
O       3.77008199     2.66247299     3.03450302    -0.53318117     0.77899390     0.66779184
O       1.88350545    -2.45149653     8.14156561     0.87995036    -1.72761459     0.63950970
O       3.68458901    -0.94735200     3.39523801    -0.53912711    -1.03528001    -0.57285434
O      -1.74781456     0.99339545     7.96106262    -0.70019161     0.45380322     0.27114864
O      -0.06360102     2.61883402     3.23704899    -0.18167525     0.35706877    -0.18702546
O      -1.88148654    -2.67419157     8.16074363     0.09741811    -1.39361736    -1.74687344
O      -0.20736102    -0.77527600     3.31020701     3.10142185    -0.89323936    -1.19857238
O       3.84150446    -2.47343654     6.55529563     0.10379007    -1.84646233     0.01469540
O       5.54809998    -0.59189200     1.68086502    -0.21856930    -0.86243162    -0.93593152
O       3.93732946     0.83923046     6.45499162    -0.37948160     0.48159968     0.46954480
O       5.53348998     2.62258800     1.41688299     1.72086441     1.04084748     0.44312285
O       0.10687243     4.61936745     6.53424062    -1.18602282    -1.14029882    -0.12975694
O       1.84425601    -0.57421600     1.88533000    -0.81185184    -1.79437150    -1.43385309
O       0.22362946     1.18218647     6.39651060    -1.46805905     0.30244823    -0.23794129
O       1.75494502     3.13755801     1.82186398     1.50555527     0.61819499    -2.64736718
