# total energy = -19517.38798918 eV

CRYSTAL
PRIMVEC
        7.60600008     0.00000000     0.00000000
        0.00000000     7.60600008     0.00000000
       -1.89786986    -1.89786986     4.85670466
PRIMCOORD
23 1
Ti      3.76299900     6.74358299     1.23643402    -0.18514598     0.91458159     0.94965247
Ti      3.81018802     2.90953500     1.12985899     0.29424487    -1.72841831     2.18720150
Ti      0.04585199     6.61006199     1.13148902    -0.47969501     0.04808685    -0.09092915
Ti     -0.05605897     2.74869200     1.13926999     1.56238695    -0.16645611    -0.95839191
Ti      5.66654821     2.74728222     3.71048880    -1.67663319    -0.29317657    -0.22455920
Ti      5.79850120    -1.03730378     3.53783382    -0.63702678     0.24047408     1.75500713
Ti      2.08222321     3.00690621     3.83850281     0.78362188    -1.43720195    -3.49614187
Ti      1.92120124    -0.85613180     3.65695083     0.22203027     0.43237847     0.97097490
O       3.81246798     4.75180099     0.79718002     0.42922192     1.47062296     2.12821446
O       3.55671502     1.00303198     0.88052099     0.30698417    -0.24659665    -1.10923756
O      -0.24908199     4.64725101     0.78515600     0.40942031     1.00875496    -0.20139664
O       0.24577902     0.81037998     0.67809900    -0.27291422     0.10820749     0.31421618
O       5.24809823     4.65430421     4.02641079     1.75616310     0.60342091    -0.45782108
O       5.95880624     0.90545524     4.13333280     0.02187984     0.02068145    -1.37216510
O       1.97431021     4.86370224     4.14313883     0.20825918    -0.07642736    -0.63617652
O       1.52758020     1.07888822     4.18557879     0.60865336    -0.52334181    -1.56909908
O       3.86633520     2.53096922     3.15875579    -1.11441603     0.77725686     0.25911742
O       3.81139925    -0.64857980     3.24836381    -1.04095624    -0.45652653    -0.19337557
O       0.14592825    -0.84997476     3.14556483    -1.50975671    -0.93763333    -0.35396853
O       5.68942603     6.73704701     1.73606000     0.41378578    -0.24367973    -1.74205262
O       5.80006699     2.51450001     1.39780901    -2.36210112     0.70445450     1.52107882
O       1.87786300     6.45693698     1.38633898     0.86299007    -0.08388253     0.98773798
O       1.59736201     3.03043502     1.88959501     1.39900383    -0.13557895     1.33211424
