# total energy = -39022.39776244 eV

CRYSTAL
PRIMVEC
        7.60600008     0.00000000     0.00000000
        0.00000000     7.60600008     0.00000000
       -3.79573973    -3.79573973     9.71340985
PRIMCOORD
46 1
Ti      2.04083043     3.94742543     6.29228660     0.43290554     1.25655103    -1.87469048
Ti      3.85989199    -0.00932601     1.52262297     0.30762798     0.40225412     0.70089507
Ti      1.93678445     0.54558047     6.28883060     0.56467977     0.59542169    -3.10019749
Ti      3.88054901     3.15399399     1.48360002     0.39045430     1.53285962     1.16712597
Ti     -1.76696856     3.92401245     6.72090864     0.49541628     1.54410049    -1.31321431
Ti     -0.14668301     0.04530001     1.65216498     0.89111049    -0.30962830    -2.69924769
Ti     -1.94455854     0.76266047     6.09769162    -0.42509633    -4.04895213     0.31306175
Ti     -0.05747399     3.65645298     1.17335202    -0.32155077     0.53764770    -2.81878809
Ti      3.85874844     2.25521644     8.28471864     1.83871714    -3.49265931     4.94296206
Ti      5.66718000     1.62408599     3.39163098    -1.41285179     2.36990493     1.39688498
Ti      3.84382347    -2.05370854     8.51452662    -0.52276177     0.77137751     2.27538883
Ti      5.48233500     5.72431802     3.54047002    -1.07231702    -0.55239915     0.95092594
Ti      0.14409147     1.97088542     8.24441661    -0.50636327    -0.52256303    -0.49193166
Ti      1.89508999     1.72352300     3.10807400    -1.38276499    -0.35263001     1.99716451
Ti      0.10056945    -1.45652757     8.28535662    -0.90997777     0.09513368    -0.83025323
Ti      1.93124899     5.88854299     3.01753299     1.08304444    -0.52321429     3.11138873
O       2.46654602     5.07650198     4.69089798    -1.81131534    -1.42940893     0.39401374
O       3.47607698     1.60204200     0.57760501     1.14057804     0.03174491    -3.38363241
O      -1.89346256     2.24156546     5.27688463     1.41971124     2.45397258    -1.74748974
O       0.14516798     5.55396199     0.56915903     0.45730403     0.86985209    -0.54713558
O       5.42407544     4.75429643     5.16910461     0.86517011     1.61172438    -0.38815547
O       0.52411398     1.90208402     0.82826299     1.05492967    -0.20843607    -1.46234966
O       3.03981643    -3.66598155     9.55375263     1.12526660     0.73134851     0.05824476
O       4.83905798     3.77090200     2.96820399     0.95125299     0.03958420     1.35730283
O       3.61903247    -0.03830354     8.89372461     0.61233853    -2.77520453    -0.72659325
O       4.88871602    -0.11406802     4.49129798     2.65867798    -0.39859236     1.60569540
O       3.93749801     6.43174201     0.14983998     0.38016294     0.18753762    -1.68682839
O       1.65889644     2.26790547     5.47003464     0.23648013    -0.37945074    -1.10127434
O      -0.51932757     0.12914147     8.83167461     1.45997550     0.64076260     2.16753770
O       2.06897203    -0.03143001     4.42628099    -0.66873467     0.48877101     0.57446693
O       2.22641946     2.16000247     7.89672160    -7.22408728    -1.52240962    -0.97835474
O       3.66750198     1.51588501     2.91736101     2.27632369     1.33122978     0.56367884
O       2.06166144    -2.12601755     7.53159961    -0.52026009     1.64121443     0.88865946
O       3.91142402     5.90749198     2.42022501    -0.95173147     0.35983451     1.48025560
O      -1.85998554     2.44613443     7.96343460     2.24231826    -1.38225283    -0.47457697
O      -0.06149098     1.51591798     3.12130200    -0.14261297     0.52301400     0.68013726
O      -1.74468353    -2.09105957     7.90212863    -1.34518547    -0.72188042    -0.25237881
O      -0.00302901     6.05848699     2.80927798    -0.17235911    -1.22998587     2.24297518
O       3.81532146     3.70314646     7.18956161     1.10566733     3.33746746    -2.27559863
O       5.75931600     0.03203703     2.50590998    -0.63972079    -1.41885506    -3.90781780
O       3.88488244     0.92171543     6.35193663    -1.61882397    -0.33478218     2.74099573
O       5.87740301     2.92011998     1.16753398     0.15192603     0.16164454    -0.56937203
O       0.14907246     3.84950546     6.83024761    -0.27125714    -0.47426149     0.89698649
O       1.96806502     0.16508298     1.99542999    -1.44955508    -2.31736185    -0.44444646
O      -0.12046556    -0.11832753     6.48642660     0.81125765     1.00099022    -0.11809338
O       2.16553899     3.80716901     2.06278102    -1.58396829    -0.12101570     0.68567284
