# total energy = -19960.33815944 eV

CRYSTAL
PRIMVEC
        7.60600008     0.00000000     0.00000000
        0.00000000     7.60600008     0.00000000
       -1.89786986    -1.89786986     4.85670466
PRIMCOORD
24 1
Ti      3.83517301     6.62598599     1.16671799    -0.83018304     0.14745411     0.17042666
Ti      3.71318300     2.85163597     1.25650201     0.05279222    -0.33904430    -0.52052414
Ti      0.10923901     6.78249000     1.13464101     0.23997092    -1.08813523     1.69894806
Ti     -0.04903102     2.90854999     1.18235100     0.04741682     0.92856222     1.60324848
Ti      5.63436021     2.99446425     3.66206680     1.70730415    -1.92442129    -0.18727434
Ti      5.68694720    -0.95707177     3.53323781     2.11645397     0.96208762     1.32270271
Ti      1.91461621     2.75029525     3.70960581    -2.01663574    -1.04454524    -1.78931234
Ti      1.93118522    -1.10435778     3.67042982    -1.57212244     1.32036121    -0.47627415
O       3.76941300     4.70013302     0.71300999     0.37207965     0.83290866     1.12515398
O       3.79170502     1.03478198     0.81512199     0.30695384    -3.25541659     0.31913547
O      -0.02532103     4.87328998     0.92016002    -0.48849076     0.08981329    -1.09516540
O       0.11033399     1.06480602     0.78757699    -0.65519780    -1.84860123    -0.71172199
O       6.01631622     4.77403421     3.97518882    -0.94807716     1.57977481     0.94975866
O       5.79546722     1.09308324     4.18099881    -0.82315595    -1.01970632    -1.75804515
O       1.60649222     4.67211520     4.06128384     1.02019843     0.74424774     1.11776515
O       1.85853824     0.83339924     4.02728780     0.53476086     0.96760907     0.00998591
O       3.74132422     2.88889122     3.32727583     0.12422444     0.29599579    -0.23086767
O       3.84546720     6.33908122     3.10991982    -0.13065297     0.41273497     0.90019883
O      -0.05224578     2.80783222     3.16560382     0.64379907    -0.13948471     0.38476753
O       0.04210822    -0.95240977     3.16992180    -0.73196172     0.57650633     0.26544207
O       5.75186598     6.74152099     1.67218498    -0.92491408     0.28870440    -1.58774035
O       5.61255202     2.95159200     1.71501701     0.14325601    -0.15328357    -0.48159788
O       1.86121598     6.39823101     1.76621199     1.81582531     1.10308568    -1.65285613
O       1.89968198     2.78219300     1.59480000    -0.00364403     0.56279207     0.62384602
