# total energy = -19927.86408424 eV

CRYSTAL
PRIMVEC
        6.19275213     0.00000000     0.00000000
        0.65748629     6.55808493     0.00000000
        0.00000000     0.00000000    11.09757722
PRIMCOORD
24 1
Ti      2.63420062     3.88631509     4.11712209    -0.04364089    -1.34381868     0.71477157
Ti      4.21603798     2.67176989     6.98045550     0.04364089     1.34381868    -0.71477157
Ti      5.60870960     2.67177212     1.43162238     0.08280652     0.32896249    -0.47457543
Ti      1.24152902     3.88631318     9.66595541    -0.08280652    -0.32896249     0.47457543
Ti      2.30545761     0.60727269     1.43166689    -0.04364089    -1.34381868    -0.71477157
Ti      4.54478101     5.95081255     9.66591089     0.04364089     1.34381868     0.71477157
Ti      0.91278592     0.60727027     6.98041105    -0.08280652    -0.32896249    -0.47457543
Ti      5.93745263     5.95081490     4.11716661     0.08280652     0.32896249     0.47457543
O       2.19155732     2.30921320     5.66300885     1.58943522     1.63197260    -0.27493588
O       4.65868129     4.24887184     5.43456874    -1.58943522    -1.63197260     0.27493588
O       1.36788191     2.30923973     0.11425578    -1.14838597     0.85288409     0.36981219
O       5.48235676     4.24884538    10.98332156     1.14838597    -0.85288409    -0.36981219
O       4.32993826     0.96982918     0.11421980    -1.58943522    -1.63197260    -0.27493588
O       2.52030035     5.58825586    10.98335754     1.58943522     1.63197260     0.27493588
O       5.15361374     0.96980272     5.66304490     1.14838597    -0.85288409     0.36981219
O       1.69662481     5.58828233     5.43453276    -1.14838597     0.85288409    -0.36981219
O       0.62491742     3.98899916     2.99773254     0.45047287     0.42935356     0.84082509
O       6.22532113     2.56908589     8.09984506    -0.45047287    -0.42935356    -0.84082509
O       3.57894521     2.56902481     2.55109154     0.56662841     0.90061483     0.14133256
O       3.27129340     3.98906017     8.54648593    -0.56662841    -0.90061483    -0.14133256
O       0.29617439     0.70995650     2.55105607     0.45047287     0.42935356    -0.84082509
O       6.55406416     5.84812848     8.54652134    -0.45047287    -0.42935356     0.84082509
O       2.94255038     0.71001757     8.09988047    -0.56662841    -0.90061483     0.14133256
O       3.90768824     5.84806747     2.99769713     0.56662841     0.90061483    -0.14133256
