# total energy = -79406.59748245 eV

CRYSTAL
PRIMVEC
       10.35150501     0.00002646     0.00000000
        0.00002858    11.01713167     0.00000000
        0.00000000     0.00000000     9.26345890
PRIMCOORD
95 1
Ti      7.02148269     8.82464814     3.47988666    -0.01261075    -0.00171827    -0.00965424
Ti      7.15518605     3.22476654     3.41292180    -0.00835480    -0.00975220     0.01992143
Ti      1.84547846     8.81720499     3.44379724     0.00134829    -0.01165379    -0.01296505
Ti      1.77367445     3.13425010     3.51237126    -0.00697541     0.03530666    -0.01463318
Ti      8.48906709     7.72767662     5.80471997    -0.00686690     0.01890970     0.01005019
Ti      8.49000569     2.22233933     5.84278650     0.01056184     0.02721128     0.00616319
Ti      3.28822187     7.69367795     5.79625906     0.00611074    -0.00136294    -0.00784881
Ti      3.33868929     2.17738677     5.84825426    -0.01605757    -0.00277345    -0.01213921
Ti      9.53172933     7.76506140     1.19475650    -0.00204043    -0.00276445     0.01209087
Ti      9.67424711     2.19091305     1.15432574     0.00647533     0.01196592    -0.02155382
Ti      4.44968833     7.69157915     1.21759726     0.00226026     0.00334655     0.01295168
Ti      4.46824838     2.21906280     1.21150110    -0.00071194     0.00326813     0.01252385
Ti      5.89638536     8.81490405     8.11211900    -0.00745954     0.00484885    -0.01251511
Ti      5.91852619     3.30738878     8.10964460    -0.00425466     0.00251685     0.00316554
Ti      0.68062183     8.90051084     7.94781662     0.00913076     0.02698579    -0.02009189
Ti      0.73395395     3.30674921     8.06248153     0.01105626     0.01055567    -0.02017777
Ti      7.02483483     6.03185880     1.19410549    -0.02257609    -0.00998848     0.02154328
Ti      7.02645928     0.54897311     1.22047927     0.01252591    -0.00868648    -0.00257033
Ti      1.74445685     6.28516483     0.95284719     0.00367025    -0.00613671     0.01418272
Ti      1.88375274     0.52398684     1.15254232    -0.00681343     0.00897470    -0.00450535
Ti      8.41560851    10.47592291     8.10873682     0.02734832     0.00325733     0.01019263
Ti      8.51394585     4.95160162     8.08518215    -0.01526207     0.04017299     0.00321825
Ti      3.32929314    10.45524649     8.08319857    -0.00540189     0.01443521    -0.00191702
Ti      3.30653051     4.94295580     8.07273403    -0.02011940     0.02611290     0.01430459
Ti      5.89867798     6.15055056     5.96642000    -0.00665016    -0.00824116    -0.00348487
Ti      5.90101879     0.54788531     5.82129386     0.00722377     0.02766251    -0.00403303
Ti      0.73088416     6.03927594     5.79194752    -0.01105883    -0.00732250    -0.00615599
Ti      0.68942830     0.50448901     5.84408277    -0.01053433    -0.01928559    -0.00363451
Ti      9.63212656    10.49054158     3.42491256    -0.00532141    -0.00805218    -0.00844042
Ti      9.66100730     4.99162036     3.38717214    -0.01279047     0.02422520    -0.00107832
Ti      4.43412572    10.45551125     3.44820670     0.00373633     0.00380575     0.00143390
Ti      4.74678099     4.90465513     3.63289835    -0.04704041     0.00028899    -0.00833809
O       6.81343876     7.44723150     4.74297582     0.01094905     0.00457322     0.00642133
O       6.83312402     1.92413230     4.72463780     0.02194386    -0.02790651     0.00050676
O       1.63826012     7.44286436     4.73034280     0.00425621    -0.01473988    -0.01167487
O       1.59999208     1.87101008     4.72513199     0.02766919    -0.02365159     0.01299719
O       8.71749250     9.07891923     4.54059239    -0.01627792     0.00502985    -0.01276039
O       8.75066698     3.55862575     4.53425849     0.00328021    -0.01187876     0.00009102
O       3.52676825     9.07920936     4.53571325     0.00478945     0.00232916    -0.01182065
O       3.44131338     3.65389694     4.36326062     0.02639495    -0.01173349     0.00055382
O       6.09589097     7.41922166     0.11903180     0.01298793    -0.00588243     0.00800076
O       6.12959235     1.92241275     0.09590352     0.00641619     0.00745440    -0.00738524
O       0.89792824     7.47973041    -0.02129112    -0.01578427     0.04384118    -0.06028185
O       0.95520030     1.92995756     0.08185450    -0.00330053    -0.01826872    -0.00617553
O       9.37978809     9.10576385     9.16372877    -0.00108526     0.00084512    -0.00859417
O       9.41669847     3.57607400     9.16186283    -0.00237287     0.00204480     0.00361883
O       4.19903229     9.07179734     9.19673833     0.00162674    -0.02652171    -0.00442461
O       4.24332343     3.57746920     9.19131546    -0.01309232     0.00058493     0.00538543
O       8.69766206     6.33651609     0.09924178     0.01421821    -0.00270814     0.01092514
O       8.70297271     0.82017612     0.09083164     0.00728625    -0.00000129    -0.00934545
O       3.53162282     6.31735088     0.09717840     0.01940284    -0.02003096     0.00674581
O       3.53965213     0.81759321     0.11336929     0.00013447    -0.00288195    -0.00594054
O       6.79802542    10.18280780     9.19302315    -0.00631412     0.02590542     0.00743358
O       6.82366836     4.66822239     9.18608686     0.01879606     0.01630826    -0.01550350
O       1.61627797    10.21480570     9.15570144    -0.00166068    -0.00840391     0.00333189
O       1.66138032     4.67227011     9.20771401    -0.00487199     0.00683862    -0.01028493
O       9.41237831     6.31439477     4.71321915    -0.01867110     0.00742715     0.00067414
O       9.41088625     0.80714788     4.73828670    -0.00648767    -0.00838026    -0.00024605
O       4.24753203     6.32718154     4.75309226    -0.00632852     0.01051993     0.00015118
O       4.22197704     0.84433303     4.70590107     0.00143596    -0.00762538     0.00064098
O       6.11558705    10.19812358     4.54756613     0.01200783    -0.01653117    -0.00438630
O       6.20696634     4.68300078     4.61784523     0.03412189    -0.02371509     0.04751169
O       0.94155835    10.16781017     4.55053388     0.01136557    -0.00212527     0.00502317
O       1.00936148     4.72217173     4.44154734    -0.00047103    -0.02595735     0.04775183
O       5.34858348     8.84203814     2.51433129     0.00469304     0.01531864     0.00830852
O       5.42278278     3.34388662     2.52619356     0.00446138    -0.01831192    -0.00072788
O       0.18595861     8.86693204     2.48031782    -0.01130952    -0.00774828    -0.01954965
O       0.17276459     3.37198762     2.46573123     0.00850855    -0.00148995    -0.00330824
O      10.17182513     7.66797047     6.73350036    -0.00167765     0.00623261    -0.00018949
O      10.17242806     2.14272758     6.77109057     0.00997974     0.00642647     0.00568651
O       4.97361572     7.66064969     6.79713032    -0.00220395    -0.00902432    -0.01804427
O       4.97745118     2.18370205     6.74321970    -0.00187665    -0.01018954     0.00059033
O       7.92653755     7.66631098     2.13878227     0.00559215    -0.00037692     0.01149592
O       7.97802968     2.11626115     2.13610362    -0.00440842     0.00868982     0.01332475
O       2.74070636     7.53209563     2.15838302     0.00911251    -0.00667690    -0.01334660
O       2.77426759     2.26042573     2.11528512     0.00691498    -0.02555832     0.01408271
O       7.54691135     8.85284994     7.13786761    -0.00814629    -0.01395981    -0.00888496
O       7.58735243     3.36026651     7.13552259     0.00159846     0.00373813    -0.01036875
O       2.38133851     8.89678690     7.10987358    -0.00113977    -0.00177252    -0.00155552
O       2.41449706     3.36577389     7.11069825    -0.02688192    -0.00036253    -0.01721354
O       5.33510067     6.05375214     2.15880377     0.00493832    -0.00400090     0.00121639
O       5.36100938     0.59196965     2.14145871     0.00813240    -0.01068782    -0.00893613
O       0.21183512     6.13870584     2.08905443    -0.03228381    -0.00486736     0.02200634
O       0.20824495     0.61652786     2.14796975     0.01142162     0.00455934    -0.00381552
O      10.12521655    10.41442413     7.11792322    -0.01041811    -0.00149458    -0.00082841
O      10.17928082     4.89931934     7.11503659     0.00520623     0.00355867     0.01091665
O       4.98236062    10.42063234     7.14042597     0.01528290     0.00330824     0.00529647
O       4.99631194     4.90726593     7.14883111     0.02902622     0.02333740     0.01118765
O       7.58654325     6.11408768     6.79392101    -0.00220472    -0.00007019    -0.00259913
O       7.55884453     0.60426635     6.77343002     0.00302490     0.00415002     0.01309155
O       2.39390481     6.10969304     6.77064300    -0.00483728     0.00638842     0.00862091
O       2.41771688     0.64475328     6.75172551    -0.01034407    -0.01765243     0.00269015
O       7.95199169    10.41135069     2.50578832     0.01664430     0.00160308     0.01752490
O       7.97195314     4.90324526     2.49465170    -0.02214646    -0.01326664     0.00463647
O       2.77214453    10.40017300     2.48488740    -0.01957073    -0.01067240    -0.00625447
