# total energy = -19880.37817406 eV

CRYSTAL
PRIMVEC
        9.39399080     0.00000000     0.00000000
        0.00002921     3.33268233     0.00000000
        0.00000000     0.00000000    14.94504703
PRIMCOORD
24 1
Ti      3.40488693     1.97494435     5.54450598     0.22238354     0.07831172     2.00962588
Ti      5.98913269     1.35773766     9.40054149    -0.22238354    -0.07831172    -2.00962588
Ti      8.10172209     1.35773873     1.92795805     0.22228943    -0.07826544    -2.01051060
Ti      1.29229760     1.97494340    13.01708956    -0.22228943     0.07826544     2.01051060
Ti      3.40487271     0.30860325     1.92801798     0.22238354     0.07831172    -2.00962588
Ti      5.98914697     3.02407889    13.01702963    -0.22238354    -0.07831172     2.00962588
Ti      1.29228331     0.30860211     9.40048156    -0.22228943     0.07826544    -2.01051060
Ti      8.10173637     3.02408003     5.54456592     0.22228943    -0.07826544     2.01051060
O       2.97326754     1.17349400     7.62634328     0.90902954     0.49623312    -1.97314346
O       6.42075215     2.15918807     7.31870420    -0.90902954    -0.49623312     1.97314346
O       1.72380306     1.17350753     0.15386766    -0.90929874     0.49621255    -1.97174555
O       7.67021668     2.15917454    14.79117937     0.90929874    -0.49621255     1.97174555
O       6.42073786     0.49284684     0.15381913    -0.90902954    -0.49623312    -1.97314346
O       2.97328182     2.83983517    14.79122790     0.90902954     0.49623312     1.97314346
O       7.67020240     0.49283338     7.62639175     0.90929874    -0.49621255    -1.97174555
O       1.72381716     2.83984870     7.31865573    -0.90929874     0.49621255     1.97174555
O       0.34132295     2.02712631     4.03703012    -1.48704897     0.52714165     0.75418377
O       9.05269673     1.30555570    10.90801729     1.48704897    -0.52714165    -0.75418377
O       5.03833077     1.30552481     3.43554110    -1.48845460    -0.52699613    -0.75550686
O       4.35568891     2.02715726    11.50950612     1.48845460     0.52699613     0.75550686
O       0.34130866     0.36078514     3.43549339    -1.48704897     0.52714165    -0.75418377
O       9.05271102     2.97189693    11.50955383     1.48704897    -0.52714165     0.75418377
O       4.35567470     0.36081603    10.90806493     1.48845460     0.52699613    -0.75550686
O       5.03834499     2.97186598     4.03698242    -1.48845460    -0.52699613     0.75550686
