# total energy = -19941.02510100 eV

CRYSTAL
PRIMVEC
        6.53438780     0.00000000     0.00000000
        0.00002466     4.17273862     0.00000000
        0.00000000     0.00000000     9.97983327
PRIMCOORD
24 1
Ti      2.36841572     2.47276102     3.70244698     0.09297652     1.30571671    -0.79682579
Ti      4.16599632     1.69997754     6.27738640    -0.09297652    -1.30571671     0.79682579
Ti      5.63549719     1.69997895     1.28742984     0.09405433    -1.30573677     0.79775216
Ti      0.89891489     2.47275978     8.69240360    -0.09405433     1.30573677    -0.79775216
Ti      2.36840360     0.38639177     1.28746987     0.09297652     1.30571671     0.79682579
Ti      4.16600843     3.78634691     8.69236362    -0.09297652    -1.30571671    -0.79682579
Ti      0.89890272     0.38639026     6.27734637    -0.09405433     1.30573677     0.79775216
Ti      5.63550931     3.78634842     3.70248696     0.09405433    -1.30573677    -0.79775216
O       2.06818356     1.46929216     5.09263255     1.86756955    -0.64480257     1.13462645
O       4.46622853     2.70344635     4.88720083    -1.86756955     0.64480257    -1.13462645
O       1.19906568     1.46930901     0.10274798    -1.86752507    -0.64537747     1.13462619
O       5.33534646     2.70342956     9.87708508     1.86752507     0.64537747    -1.13462619
O       4.46621641     0.61707699     0.10271559    -1.86756955     0.64480257     1.13462645
O       2.06819567     3.55566152     9.87711747     1.86756955    -0.64480257    -1.13462645
O       5.33533429     0.61706019     5.09266488     1.86752507     0.64537747     1.13462619
O       1.19907769     3.55567837     4.88716844    -1.86752507    -0.64537747    -1.13462619
O       0.23742433     2.53809617     2.69580194    -0.12225831     0.24043680     1.49506336
O       6.29698776     1.63464234     7.28403138     0.12225831    -0.24043680    -1.49506336
O       3.50462575     1.63460355     2.29414644    -0.12094757    -0.24012544    -1.49542126
O       3.02978628     2.53813502     7.68568672     0.12094757     0.24012544     1.49542126
O       0.23741216     0.45172681     2.29411459    -0.12225831     0.24043680    -1.49506336
O       6.29699987     3.72101170     7.68571858     0.12225831    -0.24043680     1.49506336
O       3.02977416     0.45176565     7.28406318     0.12094757     0.24012544    -1.49542126
O       3.50463787     3.72097286     2.69577009    -0.12094757    -0.24012544     1.49542126
