# total energy = -19517.81124163 eV

CRYSTAL
PRIMVEC
        5.93400000     0.00000000     0.00000000
        0.00000000     9.29699974     0.00000000
        0.00000000     0.00000000     4.64899994
PRIMCOORD
23 1
Ti      4.55076898     7.07663598     2.26748800     0.50467483    -0.92696942     0.60075776
Ti      4.42313201     2.23483798     2.32486098    -0.91649732    -0.17963585     0.21988674
Ti      1.47832502     7.15842302     2.18462599     0.49863196    -0.88998743     0.63371083
Ti      1.42087801     2.32157500     2.37261298     0.84155606    -0.55023325    -0.39405307
Ti      3.01311399     4.55690501     0.09312398    -0.22621165    -0.92509329     0.91021611
Ti      2.92268098     9.24114900     4.59237502    -0.01521734     1.07600733    -0.01087808
Ti      0.01427101     4.62032700     0.04544902     0.12482916     1.00421696    -1.03684324
Ti      5.87406200     0.10453701     4.64864000     0.44660850     0.12359786     0.21038471
O       4.40934202     5.55072100     0.90875101    -0.04268984     0.25320439     0.26831117
O       4.37672798     0.89294301     0.87960599     0.85857445     0.06041041     0.25526693
O       1.52188498     5.69402198     0.94673498     0.18601604    -1.00729020    -0.38338042
O       1.61285198     0.89253300     1.04949602    -0.99145271    -0.38896357    -1.10987237
O       4.53891901     8.38117803     3.69333203    -0.29352419    -0.41049914     0.29795446
O       4.41454198     3.74024502     3.67606402    -0.21139644     0.53985499     0.87588107
O       1.48358901     8.38525798     3.81374901    -0.69908141    -0.82944436    -0.94127659
O       1.45137503     3.74877102     3.77774199     0.47265970    -0.26427042    -0.00963238
O       2.94872598     1.33037299     3.28677398    -0.06143962     0.74926062    -0.44054326
O       0.06365002     5.94246901     3.27672898    -0.51493225     1.13965038    -0.83656477
O       5.91002801     1.29812900     3.15997401     0.18306724     0.21125580     0.99973295
O       3.05360901     7.88676301     1.30412701    -0.16980677    -1.48957508     1.97482445
O       2.95905102     3.17705501     1.48117601    -0.30558549     0.91026213    -0.75885418
O       0.02220698     7.97703599     1.49581798    -0.58481820     0.40647562    -0.81163072
O       5.84158401     3.03564202     1.38568698     0.91603555     1.38776527    -0.51339781
