# total energy = -4948.21180487 eV

CRYSTAL
PRIMVEC
        5.67049387     0.00000000     0.00000000
       -0.00000741     2.43021182     0.00000000
       -2.83527946    -1.21519383     6.15375105
PRIMCOORD
6 1
Ti     -0.00024230     1.82273433     1.53843771    -0.02258972    -0.01713332    42.25855050
Ti      2.83544902    -0.60771628     4.61531323     0.02258972     0.01713332   -42.25855050
O       0.00006025     0.60753806     1.00239575     0.02109925     0.01778098   -36.61176412
O       2.83514630     0.60747993     5.15135524    -0.02109925    -0.01778098    36.61176412
O      -0.00002371    -0.60758205     4.07927128    -0.00147196    -0.00011133    -1.41903453
O       2.83523020     1.82259999     2.07447972     0.00147196     0.00011133     1.41903453
