# total energy = -19920.53886825 eV

CRYSTAL
PRIMVEC
        7.20205955     0.00000000     0.00000000
        0.00003043     5.66555996     0.00000000
        0.00000000     0.00000000    11.46678828
PRIMCOORD
24 1
Ti      2.61041824     3.35740563     4.25409667     0.49508435    -0.73041443     1.10840041
Ti      4.59167180     2.30815452     7.21269167    -0.49508435     0.73041443    -1.10840041
Ti      6.21132363     2.30815649     1.47925169     0.49604826     0.72977499    -1.10783168
Ti      0.99076641     3.35740392     9.98753678    -0.49604826    -0.72977499     1.10783168
Ti      2.61040315     0.52462578     1.47929766     0.49508435    -0.73041443    -1.10840041
Ti      4.59168688     5.14093457     9.98749080    -0.49508435     0.73041443     1.10840041
Ti      0.99075133     0.52462362     7.21264570    -0.49604826    -0.72977499    -1.10783168
Ti      6.21133871     5.14093673     4.25414264     0.49604826     0.72977499     1.10783168
O       2.27950807     1.99494001     5.85141429     0.82962074     1.39819444    -1.16573449
O       4.92258203     3.67062014     5.61537405    -0.82962074    -1.39819444     1.16573449
O       1.32158530     1.99496287     0.11805703    -0.82986962     1.39836825    -1.16652228
O       5.88050486     3.67059735    11.34873099     0.82986962    -1.39836825     1.16652228
O       4.92256694     0.83784010     0.11801983    -0.82962074    -1.39819444    -1.16573449
O       2.27952316     4.82772006    11.34876819     0.82962074     1.39819444     1.16573449
O       5.88048978     0.83781731     5.85145149     0.82986962    -1.39836825    -1.16652228
O       1.32160026     4.82774291     5.61533685    -0.82986962     1.39836825     1.16652228
O       0.26168600     3.44611472     3.09746559    -1.38665250     0.28890160     0.05704637
O       6.94040410     2.21944543     8.36932275     1.38665250    -0.28890160    -0.05704637
O       3.86272354     2.21939259     2.63596505    -1.38631620    -0.28861904    -0.05701501
O       3.33936656     3.44616763     8.83082310     1.38631620     0.28861904     0.05701501
O       0.26167092     0.61333474     2.63592842    -1.38665250     0.28890160    -0.05704637
O       6.94041919     5.05222547     8.83085972     1.38665250    -0.28890160     0.05704637
O       3.33935148     0.61338759     8.36935932     1.38631620     0.28861904    -0.05701501
O       3.86273862     5.05217257     3.09742896    -1.38631620    -0.28861904     0.05701501
