# total energy = -19960.41968955 eV

CRYSTAL
PRIMVEC
        5.93400000     0.00000000     0.00000000
        0.00000000     9.29699974     0.00000000
        0.00000000     0.00000000     4.64899994
PRIMCOORD
24 1
Ti      4.48867998     6.96154601     2.33845300    -0.67366810    -1.17294001    -0.31788566
Ti      4.40991200     2.32133301     2.25328298     0.99851631     1.05386987     0.35780873
Ti      1.44309599     7.02077698     2.33310699     0.60502682    -1.59724624    -0.84380320
Ti      1.53543901     2.33371702     2.40565999    -1.17506169     0.88793723    -0.54131949
Ti      2.99676500     4.64632601     4.59758201     0.29793775     2.35041031     0.60574827
Ti      2.92053999     0.03971301     0.03196903     0.16929666    -1.46197145     0.19970846
Ti      0.03632400     4.55965900     0.00587000    -0.21977618     2.13037830     0.52790321
Ti      5.90886202     0.04718001     4.62540901    -0.41319006    -1.01432757    -0.04295518
O       4.48445799     5.57605102     0.97492600     0.02090950    -1.30793969    -1.32577647
O       4.45144300     0.81322002     1.05972301    -0.43344367     0.18103298    -0.80047804
O       1.43322398     5.62130102     0.84830198    -0.09203730    -0.81949676    -0.11394696
O       1.39372799     0.85423200     1.00649402     1.18520289     0.04926981    -0.38677145
O       4.49190198     8.43303798     3.69604300    -0.51367421     0.77406920     0.82262965
O       4.37275302     3.72125898     3.75109802     0.80840039    -0.45068884    -0.43326858
O       1.52551900     8.41075200     3.70097499    -0.06439202     0.99492705     0.73971488
O       1.53400399     3.85578801     3.69992499    -0.46399456    -1.68595190    -0.68645163
O       3.04722899     6.02146702     3.23598900    -0.56339190     0.38170252     0.26548038
O       2.98892800     1.48318101     3.33369502    -0.16846286    -0.22995004    -0.13225117
O       5.90800502     5.95953900     3.14176201     0.53149941     0.76686446     0.37756330
O       5.81795498     1.50555098     3.24778500     0.99287119    -0.30263824     0.53595282
O       2.96665101     7.60887801     1.33828598    -0.26971036     2.63919646    -0.57242034
O       2.87830201     3.18383202     1.32312998     0.41226395    -0.92512440     1.24149850
O       0.02931002     7.88309602     1.38143198     0.06463139     0.26664484     0.07221872
O       0.12467601     3.32949700     1.43994998    -1.03575335    -1.50802738     0.45110125
