# total energy = -19958.44440805 eV

CRYSTAL
PRIMVEC
        7.60600008     0.00000000     0.00000000
        0.00000000     7.60600008     0.00000000
       -1.89786986    -1.89786986     4.85670466
PRIMCOORD
24 1
Ti      3.84269701     6.69027399     1.15363398    -2.04615407     0.12109180    -0.45936709
Ti      3.89087098     2.88661999     1.21808501     0.82255663    -0.52031614    -0.94611078
Ti     -0.10840498     6.75646200     1.24489102     0.62633073    -0.20564488     0.52668168
Ti     -0.00251402     2.88421202     1.25694297    -0.21409558    -0.39308814     1.91265386
Ti      5.60489520     2.89937025     3.74569581     3.37688352    -2.44752837     0.65407295
Ti      5.55235520    -1.03813279     3.56834380    -0.37129983     2.80580864     0.95629029
Ti      2.14765724     2.73069923     3.64982281    -3.65546779     1.23912537    -0.02000165
Ti      1.83244821    -0.97622878     3.58367883     0.90529142    -0.57802149     0.09926390
O       3.73610198     4.75590100     0.72712097     0.74062711    -1.24550094     0.66420875
O       4.20128800     0.88155702     0.71088000    -1.67608837     1.88159133    -0.30712250
O      -0.26746899     4.90284098     0.90407901     0.97518148    -1.32427083    -0.20032809
O      -0.21897699     1.13879902     0.75603400     0.41698372    -2.10483156     0.10479923
O       5.49924623     4.74787920     4.03888583     0.47666753     0.91475745     0.91278336
O       5.65738424     0.87930325     3.78039983    -0.10922127     1.31104790     2.31906469
O       1.97899221     4.71036821     4.02459481    -0.45081045     0.82196604    -0.47941270
O       2.19219624     0.97262223     3.95951279    -1.08393121    -2.07201090     1.65604302
O       3.90015820     2.62670421     3.24859982    -0.35444547     0.79861399    -0.72971046
O       3.71478524    -0.89769475     3.20169482    -0.03223136    -0.56407813    -0.41288975
O       0.03541524     2.56737423     3.27039780     1.27206559     1.25548582    -1.04434830
O      -0.13948578    -0.78756879     3.19354983     1.87753850    -0.73158274    -0.26947254
O       5.54423498     6.68395498     1.67571602     2.80957068    -0.81652199    -0.66272111
O       5.80124599     2.99039302     1.93148601    -0.90703694     0.67542468    -3.43113896
O       1.90487300     6.57319400     1.61291998    -1.72938479     0.73423432    -0.18292352
O       2.13180198     2.70694299     1.64992799    -1.66953000     0.44424874    -0.66031430
