# total energy = -19072.49577791 eV

CRYSTAL
PRIMVEC
        5.17600016     0.00000000     0.00000000
        0.00000000     5.50899976     0.00000000
        0.00000000     0.00000000     9.26300011
PRIMCOORD
22 1
Ti      1.60580302     3.34468201     3.33719801     3.10064023     0.63837790    -0.82126542
Ti      3.94401901     2.31702799     5.84014301    -2.24057043    -0.71189142    -0.99920125
Ti      4.23268699     1.99513799     1.48474701     0.50425008     1.89664591    -1.79249383
Ti      0.93983203     3.34366599     8.24554598    -0.53729288     0.16330162     2.47196645
Ti      1.67750601     0.61997100     1.36221199     0.39952875    -1.56237101    -1.88452213
Ti      3.43432400     5.37292300     7.76453598    -1.34240663     1.44441570     2.07196667
Ti      1.11302698     5.38740700     6.10753903     0.49051062     1.13213762    -0.95576013
Ti      4.27822301     5.02938499     3.50220802    -1.76113099    -1.11881673     1.01222801
O       3.25316101     3.61929399     4.44639099     1.13047077     0.26903134     1.81701676
O       0.92320501     1.96345202     0.22800200    -0.89789229     0.70455118    -0.22207809
O       4.33900902     3.73216300     7.74246998     1.17076871    -1.26386171    -0.54628172
O       3.49095602     0.85648301     0.23498502     0.55826641     0.59178743    -1.31253168
O       1.78971900     4.80576701     9.23686902    -1.55372927    -1.47133593    -2.09146284
O       3.95538801     1.18889898     4.39243502     0.55593313    -0.94515433     1.29081871
O       0.93407902     4.78543401     4.27776797    -1.03482107     1.52768682     2.42964454
O       0.00444398     3.45486401     2.54939501    -1.49204771    -0.60417733    -1.69819550
O       4.97609298     0.85824702     6.91778401    -0.57202053     0.04123845     0.40433646
O       2.57519500     1.91767602     2.34116202    -0.25412536     0.88096106     0.92760320
O       1.97449801     3.90993999     6.88228601     1.40102034     0.34864300    -1.31064629
O       5.10997800     0.70468502     2.26532298     1.87675045    -1.72063455     0.25305964
O       2.44161499     1.14537601     6.71050099     0.13711673    -0.18326342    -0.61961912
O       2.62609603     4.67272201     2.25511901     0.36078067    -0.05727134     1.57541731
