# total energy = -4987.75543698 eV

CRYSTAL
PRIMVEC
        3.16500382     0.00000000     0.00000000
        1.45498832     4.74083835     0.00000000
       -0.00000969    -0.00006499     5.01710558
PRIMCOORD
6 1
Ti      2.30999129     2.37038673     2.50855279     0.00000000     0.00000000     0.00000000
Ti      0.00000000     0.00000000     0.00000000     0.00000000     0.00000000     0.00000000
O       1.86605582     0.92390700     0.97775996    -0.11674998     0.16967487    -0.10025275
O       2.75392680     3.81686645     4.03934556     0.11674998    -0.16967487     0.10025275
O       0.44393149     1.44645342     3.48631387     0.11685720    -0.16955737    -0.10022267
O       1.01104735     3.29431980     1.53079171    -0.11685720     0.16955737     0.10022267
