# total energy = -78964.28807607 eV

CRYSTAL
PRIMVEC
       10.35150501     0.00002646     0.00000000
        0.00002858    11.01713167     0.00000000
        0.00000000     0.00000000     9.26345890
PRIMCOORD
94 1
Ti      7.13277291     8.69680426     3.34252004     0.02027110     0.08749544    -0.09283820
Ti      7.04468509     3.26546993     3.42918753    -0.07837317     0.13114302    -0.06188622
Ti      1.87740731     8.76638319     3.43532293    -0.17389586    -0.07023819     0.12596868
Ti      1.85945040     3.31521492     3.48276426    -0.13944075     0.29884149     0.12681688
Ti      8.42681712     7.74504489     5.81271382    -0.20719422    -0.12022277    -0.11262259
Ti      8.48407454     2.23898238     5.82560800     0.12631912     0.01350704     0.01764677
Ti      3.29775284     7.75303950     5.82465268     0.13191718    -0.18258670    -0.07461807
Ti      3.30149298     2.21118490     5.79382449    -0.29802593    -0.03987165    -0.09019896
Ti      9.68840398     7.74502601     1.18107246     0.20940152    -0.12029862    -0.11168825
Ti      9.63089459     2.23906755     1.19385368    -0.12611677     0.01328567     0.01735650
Ti      4.46586122     7.75299986     1.19288564    -0.13171869    -0.18350330    -0.07414319
Ti      4.46190565     2.21120495     1.16211046     0.29763873    -0.03951710    -0.09017839
Ti      5.88626110     8.76632314     8.06704785     0.17623119    -0.07127101     0.12613040
Ti      5.90436032     3.31521038     8.11455346     0.13986729     0.29885743     0.12739435
Ti      0.63039521     8.69678244     7.97422534    -0.01356000     0.08847118    -0.09318735
Ti      0.71915741     3.26545025     8.06089340     0.07848732     0.13137494    -0.06251228
Ti      7.04911491     6.00997038     1.18608524    -0.03053083     0.05307993    -0.02329266
Ti      7.06800278     0.52143340     1.18860296    -0.04280991     0.04975369    -0.06091563
Ti      1.88153152     6.02319419     1.19652692     0.09997404    -0.04352416     0.06088169
Ti      1.91419565     0.71809782     1.31383605    -0.33822309     0.11526414    -0.28968424
Ti      8.46765484    10.50967848     8.06689323     0.00620562    -0.14067668     0.07766097
Ti      8.48437060     4.98935785     8.06754894     0.17027291    -0.09867538    -0.08805852
Ti      3.39633621    10.50833784     7.95360727     0.34486708    -0.16156330     0.00938119
Ti      3.29272083     4.99506072     8.06238469     0.00584386    -0.09148040    -0.00331390
Ti      5.88225009     6.02311105     5.82824822    -0.10027023    -0.04374682     0.06131723
Ti      5.84910400     0.71810894     5.94569155     0.33841309     0.11627124    -0.29237850
Ti      0.71478287     6.00987756     5.81778957     0.03119341     0.05242276    -0.02330217
Ti      0.69570370     0.52133833     5.82031491     0.04213011     0.04976629    -0.06056056
Ti      9.64724361    10.50967185     3.43521023    -0.00755647    -0.14097312     0.07754759
Ti      9.63070778     4.98940206     3.43581416    -0.17034053    -0.09917289    -0.08724091
Ti      4.36733310    10.50836446     3.32181442    -0.34739499    -0.15960592     0.00975066
Ti      4.47087175     4.99509792     3.43062777    -0.00607141    -0.09164675    -0.00309381
O       6.78076343     7.49585250     4.75554475     0.04082785    -0.03673696    -0.06776788
O       6.82816323     1.87787018     4.69990615    -0.01832220    -0.06466481     0.01603855
O       1.64128980     7.44713960     4.74167661     0.02764297    -0.04750680     0.05108990
O       1.63804513     1.92833692     4.72295335     0.06839960    -0.07334614     0.03240080
O       8.64766947     9.12723526     4.56652380    -0.03457441    -0.01025948    -0.04831002
O       8.70761963     3.57093035     4.53718591    -0.00762795     0.03235555    -0.06983582
O       3.56715387     9.09119394     4.56722849    -0.12952760     0.17936819    -0.12010167
O       3.54568713     3.55655213     4.53502966     0.12544726    -0.00177072     0.00849853
O       6.12242338     7.44719752     0.10997189    -0.02760132    -0.04761891     0.05070603
O       6.12566317     1.92838914     0.09126646    -0.06886522    -0.07363514     0.03244476
O       0.98295719     7.49588324     0.12385054    -0.04174239    -0.03658193    -0.06835717
O       0.93556837     1.87789466     0.06821712     0.01752850    -0.06422695     0.01471700
O       9.46752525     9.12725734     9.19825858     0.03399977    -0.01050502    -0.04816912
O       9.40759034     3.57092146     9.16889430     0.00708416     0.03243242    -0.06964941
O       4.19651299     9.09120016     9.19898706     0.12982970     0.17972892    -0.12117974
O       4.21793872     3.55654445     9.16674591    -0.12482762    -0.00231656     0.00858800
O       8.71942126     6.32797838     0.08753681    -0.04710906     0.04314878    -0.02779595
O       8.70013103     0.81819051     0.09820702    -0.04871394     0.06824584    -0.01025408
O       3.54313738     6.33100761     0.10329478     0.02773321     0.06250740     0.01421075
O       3.45234433     0.73612545     0.07908148    -0.05789535     0.03152097     0.06931182
O       6.81368905    10.19775303     9.17182140     0.05444904    -0.06003271     0.00270583
O       6.81200044     4.67949880     9.16520656     0.02385985    -0.01038495     0.09657118
O       1.63751623     4.69006685     9.16916951     0.01305864    -0.03218791    -0.01744083
O       9.39579738     6.32798188     4.71929355     0.04680875     0.04293692    -0.02803275
O       9.41507891     0.81819331     4.72993707     0.04771584     0.06815843    -0.01037081
O       4.22053497     6.33100935     4.73501916    -0.02721771     0.06217290     0.01471032
O       4.31118625     0.73616770     4.71076308     0.05917576     0.03195728     0.07083957
O       6.12622307     4.69013533     4.53740947    -0.01274291    -0.03266279    -0.01746500
O       0.95009038    10.19778174     4.54002693    -0.05502034    -0.06031810     0.00341006
O       0.95172745     4.67952792     4.53345769    -0.02373875    -0.01073822     0.09641100
O       5.39440112     8.92889844     2.60993554     0.02713955    -0.00907857    -0.02025002
O       5.36095183     3.34916668     2.49497855     0.02500065    -0.00436908    -0.05274543
O       0.17614522     8.85529417     2.51442080    -0.05814012    -0.04203164     0.10940099
O       0.19807177     3.34351247     2.49397227     0.01963604    -0.02005127    -0.03941400
O      10.17808749     7.63998841     6.73089988    -0.17629444    -0.07038063     0.07747097
O      10.16280430     2.15292206     6.75908202     0.00318611     0.04389363     0.03943482
O       4.97703501     7.66126399     6.77239023    -0.05452566    -0.07958056     0.10837307
O       4.99716974     2.14595905     6.78133680    -0.14984266     0.15073895     0.25028362
O       7.93710531     7.63995827     2.09924615     0.17554985    -0.06942418     0.07780084
O       7.95242243     2.15286626     2.12738958    -0.00397056     0.04386278     0.03959243
O       2.78667683     7.66118922     2.14069844     0.05460177    -0.07990477     0.10803342
O       2.76643081     2.14582503     2.14964242     0.14974779     0.15115264     0.25032604
O       7.58756322     8.85536019     7.14614436     0.05734308    -0.04219156     0.10944676
O       7.56565488     3.34360516     7.12567348    -0.02037729    -0.02047396    -0.03937389
O       2.36918318     8.92890659     7.24166568    -0.02823021    -0.00784315    -0.01880866
O       2.40271617     3.34921731     7.12665942    -0.02461781    -0.00408137    -0.05283388
O       5.36551282     6.11487717     2.13678687     0.08129317     0.08308831     0.05528491
O       5.36338737     0.60627431     2.13269008    -0.14782126    -0.08271139    -0.00766806
O       0.18774639     6.10845056     2.12689670     0.07585014    -0.00667356    -0.00398110
O       0.14967410     0.57029728     2.10913197     0.17521406     0.03954795     0.02858271
O      10.21715564    10.42172879     7.19103202     0.08056298    -0.05023140     0.04220699
O      10.16257720     4.91322799     7.12967501     0.01137971    -0.04888877    -0.04810999
O       5.06219368    10.34993099     7.05519100    -0.31194949     0.21511554     0.01381994
O       4.98827947     4.90442821     7.13401591    -0.04048872     0.00124081    -0.00333961
O       7.57597067     6.10852598     6.75867414    -0.07612756    -0.00680828    -0.00415645
O       7.61399487     0.57038778     6.74089630    -0.17763913     0.03970916     0.02784377
O       2.39818090     6.11490857     6.76856058    -0.08079823     0.08294459     0.05543532
O       2.40022674     0.60638912     6.76445389     0.14847612    -0.08380102    -0.00670081
O       7.89804433    10.42166575     2.55924273    -0.08155002    -0.04989048     0.04203678
O       7.95265946     4.91316836     2.49788142    -0.01134551    -0.04907492    -0.04816346
O       2.70140346    10.34989037     2.42336084     0.31241049     0.21471548     0.01363122
O       2.77540743     4.90434369     2.50224203     0.04078260     0.00148198    -0.00352190
