# total energy = -19073.16343169 eV

CRYSTAL
PRIMVEC
        5.93400000     0.00000000     0.00000000
        0.00000000     9.29699974     0.00000000
        0.00000000     0.00000000     4.64899994
PRIMCOORD
22 1
Ti      4.36712299     6.82714600     2.44394099     0.15563459     0.40579942    -0.55731741
Ti      4.39505498     2.40487501     2.20102302    -1.05728892    -1.68161753    -0.18368071
Ti      1.49766200     7.16451698     2.59276903     0.44226205    -0.59807173    -0.79217852
Ti      1.62096803     2.49603902     2.08216801    -0.14336117    -0.09652619     0.31908173
Ti      3.02405198     4.59216599     4.53935198    -0.52209766     0.46743367    -0.75210503
Ti      2.99705002     9.22122902     4.61725402     0.71452577     0.97569416     0.92272479
Ti      5.75922800     4.58248199     4.42932900     1.05988445    -1.35197062    -0.30024377
Ti      0.02501802     9.03453100     0.37272499    -0.45852762     2.00095741    -0.40796198
O       4.56103698     5.45776900     0.81622998    -1.06611475     1.26674495     1.49812195
O       4.57248203     0.85013003     1.03665998     0.06006819    -0.18066789    -0.64234743
O       1.62173502     0.66288902     1.22375499    -1.52663189     1.53212840    -1.32652517
O       4.55807099     8.22054299     3.92158200    -0.31233773     0.88744410    -0.68353934
O       4.32888200     4.00305301     3.20158899     0.22520507     0.51649548     2.33910722
O       1.38543298     8.51720399     3.71195700     0.37756021     1.56547150     1.00534850
O       1.57203702     4.01906301     3.48248701    -0.76886272    -1.22273330    -0.22038245
O       2.85124602     6.24891000     3.46298403     0.41470675    -0.55109483     0.24549622
O       2.81078100     1.70277999     3.25179801     0.70245675    -1.07525734     0.58701058
O       0.10583302     6.12110300     3.41984402    -0.14150740     0.31843459    -0.89329413
O       3.01363697     7.99695798     1.43000198     0.18385220    -2.19087278     0.86538788
O       3.06071401     3.02247498     0.96665898    -0.53074891     0.47844442     0.76372359
O       0.00701297     7.81249600     1.58788598    -0.72351795    -1.58467637     0.22712517
O       5.74247800     3.25464001     1.41656802     2.91484119     0.11844074    -2.01355145
