# total energy = -19940.79296684 eV

CRYSTAL
PRIMVEC
        6.72847853     0.00000000     0.00000000
        0.00002539     4.29668135     0.00000000
        0.00000000     0.00000000    10.27626396
PRIMCOORD
24 1
Ti      2.43876470     2.54620937     3.81242065     0.24754899     0.85897863     0.01765269
Ti      4.28973878     1.75047192     6.46384342    -0.24754899    -0.85897863    -0.01765269
Ti      5.80288820     1.75047337     1.32567033     0.24751634    -0.85970085    -0.01613831
Ti      0.92561533     2.54620809     8.95059380    -0.24751634     0.85970085     0.01613831
Ti      2.43875222     0.39786875     1.32571155     0.24754899     0.85897863    -0.01765269
Ti      4.28975126     3.89881266     8.95055264    -0.24754899    -0.85897863     0.01765269
Ti      0.92560281     0.39786720     6.46380220    -0.24751634     0.85970085    -0.01613831
Ti      5.80290067     3.89881421     3.81246182     0.24751634    -0.85970085     0.01613831
O       2.12961475     1.51293450     5.24389886     1.60628727    -0.08102629     0.32351997
O       4.59888878     2.78374674     5.03236521    -1.60628727     0.08102629    -0.32351997
O       1.23468150     1.51295185     0.10579990    -1.60625462    -0.08122864     0.32358605
O       5.49382209     2.78372944    10.17046384     1.60625462     0.08122864    -0.32358605
O       4.59887631     0.63540601     0.10576655    -1.60628727     0.08102629     0.32351997
O       2.12962723     3.66127523    10.17049719     1.60628727    -0.08102629    -0.32351997
O       5.49380956     0.63538871     5.24393216     1.60625462     0.08122864     0.32358605
O       1.23469386     3.66129258     5.03233186    -1.60625462    -0.08122864    -0.32358605
O       0.24447654     2.61348517     2.77587527    -0.78698669     0.40848211     1.23249347
O       6.48402700     1.68319607     7.50038875     0.78698669    -0.40848211    -1.23249347
O       3.60872355     1.68315613     2.36228940    -0.78587417    -0.40839006    -1.23283234
O       3.11977993     2.61352517     7.91397445     0.78587417     0.40839006     1.23283234
O       0.24446401     0.46514444     2.36225660    -0.78698669     0.40848211    -1.23249347
O       6.48403947     3.83153680     7.91400725     0.78698669    -0.40848211     1.23249347
O       3.11976746     0.46518444     7.50042150     0.78587417     0.40839006    -1.23283234
O       3.60873602     3.83149681     2.77584247    -0.78587417    -0.40839006     1.23283234
