# total energy = -19075.59828931 eV

CRYSTAL
PRIMVEC
        7.60600008     0.00000000     0.00000000
        0.00000000     7.60600008     0.00000000
       -1.89786986    -1.89786986     4.85670466
PRIMCOORD
22 1
Ti      3.87486702     6.44799198     1.29374302    -0.28686529     0.89906060    -0.73299864
Ti      3.77389498     2.75375501     1.25164099    -0.08447748    -0.19788863    -0.12065369
Ti      0.11093301     6.84528302     0.92900702    -0.36208422    -0.27860047     0.78692138
Ti     -0.02178400     2.99742298     1.18580398     0.00786706    -0.30539266    -1.11574349
Ti      5.63002122     2.96009524     3.60823683    -0.31337131    -0.86765842     0.11962987
Ti      6.13492125    -0.75819876     3.51053679    -0.37383237     0.09091938     1.16151248
Ti      1.80434223     2.61544221     3.60590782     0.82176627     0.76459340     0.63746901
Ti      1.49863521    -1.14275679     3.82063683     0.26535646     1.08333395    -0.08805466
O       3.97676502     4.66643798     0.77514799    -0.11756296    -0.64037282    -0.28392831
O       3.60965598     0.79464299     0.95576899    -0.03341355     1.36645416     0.23169428
O      -0.13042700     4.84291499     0.82486298     0.03951376     0.92430550    -0.99562536
O       0.27722501     1.12308500     0.75980799     0.06331215    -1.06323177     0.41425012
O       5.48124923     5.06907323     3.83245680     0.30807612    -1.15275119     0.41000652
O       5.50013022     0.99714520     3.92097080     0.41421799     0.62689663     0.92431399
O       1.82313824     4.70883724     4.26711479    -0.18682979    -1.25036855    -0.55943575
O       2.15738924     0.82289322     4.02208482    -1.32343702    -0.84298482     0.24390445
O       3.66345822     2.86377620     3.15435679     1.07605335     0.33466931     0.13149192
O      -0.04629280     2.78119423     3.45565482    -0.15744516     0.34150716    -1.11593143
O       5.78784500     6.87284400     1.68852502     0.27709766    -0.27144226    -0.75544078
O       5.70331899     2.85649297     1.64884101     0.01181834    -0.22308956     0.43854449
O       2.09905602     6.21357699     2.07632801    -0.16815407     1.19773728    -0.69874434
O       1.83614002     3.08975801     1.52017003     0.12239330    -0.53569623     0.96681819
