# total energy = -19960.03946988 eV

CRYSTAL
PRIMVEC
        5.33768593     0.00000000     0.00000000
        0.56670366     5.65257529     0.00000000
        0.00000000     0.00000000     9.56527576
PRIMCOORD
24 1
Ti      2.27048255     3.34971092     3.54864917     0.36317771    -0.83779530     0.54363862
Ti      3.63390722     2.30286442     6.01662692    -0.36317771     0.83779530    -0.54363862
Ti      4.83428526     2.30286634     1.23395067    -0.48970715    -0.19850646     0.13163565
Ti      1.07010451     3.34970927     8.33132559     0.48970715     0.19850646    -0.13163565
Ti      1.98713083     0.52342332     1.23398904     0.36223309    -0.83765492    -0.55188956
Ti      3.91725895     5.12915224     8.33128721    -0.36223309     0.83765492     0.55188956
Ti      0.78675272     0.52342124     6.01658860     0.48991489     0.19795085     0.13514803
Ti      5.11763700     5.12915427     3.54868754    -0.48991489    -0.19795085    -0.13514803
O       1.88895736     1.99036787     4.88108713     0.61547605     0.74970439    -0.28087693
O       4.01543241     3.66220753     4.68418896    -0.61547605    -0.74970439     0.28087693
O       1.17901119     1.99039073     0.09847988    -0.26743597     0.06214719     0.31698346
O       4.72537863     3.66218472     9.46679599     0.26743597    -0.06214719    -0.31698346
O       3.73208068     0.83591971     0.09844887    -0.61611676    -0.75001292    -0.28143743
O       2.17230909     4.81665568     9.46682700     0.61611676     0.75001292     0.28143743
O       4.44202690     0.83589690     4.88111820     0.26626946    -0.06089866     0.31712744
O       1.46236281     4.81667849     4.68415795    -0.26626946     0.06089866    -0.31712744
O       0.53863175     3.43821685     2.58381968     0.00821673     0.15569912     0.18745097
O       5.36575796     2.21435855     6.98145641    -0.00821673    -0.15569912    -0.18745097
O       3.08478123     2.21430590     2.19884878     0.43717435     0.25069833    -0.12972429
O       2.81960854     3.43826943     7.36642720    -0.43717435    -0.25069833     0.12972429
O       0.25528002     0.61192903     2.19881820     0.00761612     0.15513245    -0.18677066
O       5.64910969     5.04064631     7.36645772    -0.00761612    -0.15513245     0.18677066
O       2.53625681     0.61198167     6.98148693    -0.43746591    -0.25042914    -0.12842408
O       3.36813296     5.04059372     2.58378916     0.43746591     0.25042914     0.12842408
