# total energy = -19941.43308187 eV

CRYSTAL
PRIMVEC
        4.72316477     0.00000000     0.00000000
        0.74983917     4.97063568     0.00000000
        0.00000000     0.00000000     8.47743322
PRIMCOORD
24 1
Ti      2.15627404     2.94559405     3.14506729     1.90734582     0.03335211    -0.13056735
Ti      3.31672984     2.02504149     5.33236612    -1.90734582    -0.03335211     0.13056735
Ti      4.37890993     2.02504317     1.09361552    -2.83281140    -0.70872691     2.11285083
Ti      1.09409396     2.94559257     7.38381799     2.83281140     0.70872691    -2.11285083
Ti      1.78135456     0.46027630     1.09364951     1.90771657     0.03434918     0.13133585
Ti      3.69164933     4.51035939     7.38378399    -1.90771657    -0.03434918    -0.13133585
Ti      0.71917446     0.46027448     5.33233213     2.83238409     0.70938382     2.10967063
Ti      4.75382943     4.51036121     3.14510129    -2.83238409    -0.70938382    -2.10967063
O       1.75894257     1.75024526     4.32596932    -2.25321820    -1.62014269    -0.60763032
O       3.71406131     3.22039028     4.15146404     2.25321820     1.62014269     0.60763032
O       1.13073267     1.75026536     0.08727992     2.04953276    -1.71642411    -0.35480645
O       4.34227127     3.22037023     8.39015325    -2.04953276     1.71642411     0.35480645
O       3.33914182     0.73507238     0.08725242     2.25281197     1.61964184    -0.60777816
O       2.13386206     4.23556316     8.39018075    -2.25281197    -1.61964184     0.60777816
O       3.96735178     0.73505233     4.32599687    -2.05062831     1.71706123    -0.35548523
O       1.50565206     4.23558326     4.15143654     2.05062831    -1.71706123     0.35548523
O       0.62769818     3.02342239     2.28996625    -1.10318159    -1.15751184    -2.04012535
O       4.84530570     1.94721311     6.18746716     1.10318159     1.15751184     2.04012535
O       2.82693270     1.94716688     1.94877743     0.26206441    -2.06540650    -1.37359463
O       2.64607117     3.02346862     6.52865584    -0.26206441     2.06540650     1.37359463
O       0.25277869     0.53810449     1.94875031    -1.10375520    -1.15740257     2.03784812
O       5.22022519     4.43253101     6.52868290     1.10375520     1.15740257    -2.03784812
O       2.27115168     0.53815072     6.18749418    -0.26270102     2.06599914    -1.37242529
O       3.20185219     4.43248478     2.28993918     0.26270102    -2.06599914     1.37242529
