# total energy = -4986.69821070 eV

CRYSTAL
PRIMVEC
        3.30799613     0.00000000     0.00000000
        0.00000000     5.18313400     0.00000000
        0.00000000    -0.00006726     5.18313400
PRIMCOORD
6 1
Ti      1.65399801     2.59153331     2.59156694     0.00000000     0.00000000     0.00000000
Ti      0.00000000     0.00000000     0.00000000     0.00000000     0.00000000     0.00000000
O       1.65399801     1.01010335     1.01011646     0.00000000    -0.77311764    -0.77311764
O       1.65399801     4.17296327     4.17301742     0.00000000     0.77311764     0.77311764
O       0.00000000     1.58140269     3.60168446     0.00000000     0.77414171    -0.77414171
O       0.00000000     3.60166393     1.58144943     0.00000000    -0.77414171     0.77414171
