# total energy = -19073.42621173 eV

CRYSTAL
PRIMVEC
        5.17600016     0.00000000     0.00000000
        0.00000000     5.50899976     0.00000000
        0.00000000     0.00000000     9.26300011
PRIMCOORD
22 1
Ti      1.99950799     3.35167699     3.29993002    -2.23891155     0.17833512    -2.01531779
Ti      3.54865301     2.21448302     5.88538899     1.07785827     0.53488582    -1.32792720
Ti      4.28706102     2.34810302     1.29343700     1.44898892    -1.67380729    -0.85895703
Ti      0.85268399     3.10737400     8.04988200    -1.42349899     0.88141126     1.65975621
Ti      1.80177599     0.39420699     1.19652199    -1.48599302     1.39673277    -1.25421904
Ti      3.24994198     4.95334798     8.00010600     1.86990874     1.87143572     2.51924315
Ti      0.91982299     0.14415000     6.19359002    -0.22572057     0.08208481    -0.49790382
Ti      4.35651003     4.96918197     3.47290001     1.40330554     1.92735698    -0.14550367
O       3.28417101     3.64067598     4.47569598     1.49421464    -1.10316153     2.26542298
O       0.98002399     1.95925601     0.32385801    -1.25137308     1.29312576    -1.68827078
O       4.31407297     3.63605102     9.00813702    -0.65109715    -0.41658366    -0.45815995
O       3.32457301     0.88320101     0.09597000     0.87062393    -0.16800160    -0.46178470
O       1.51896101     4.83831797     8.87438001    -0.62473151    -0.39210855     1.36149373
O       3.79647597     0.88915198     4.68201500     1.26442581    -0.27652790    -1.12134335
O       1.10451299     5.05547798     4.51211100    -1.57310614    -0.61493688     0.07078352
O       0.09687098     3.46742700     2.51250802     0.35835355    -0.19696457     0.61598821
O       0.14898298     2.23342698     6.48640401     0.35445704    -1.38178360     0.21567990
O       2.61354701     1.89690401     2.23261401     0.60022991     1.40363824     1.21131040
O       2.16175902     4.01021500     6.92137998    -0.34568186    -2.59890135    -2.74419650
O       5.15243801     0.64604901     2.08224501     0.05396619    -0.19187584     0.60942598
O       2.56513200     0.95304299     6.70050002    -0.97364859     0.02281521     2.07525126
O       2.78260898     4.75842502     2.32774499    -0.00257085    -0.57716942    -0.03077149
