# total energy = -19939.24536739 eV

CRYSTAL
PRIMVEC
        5.95397612     0.00000000     0.00000000
        0.31667629     6.32891334     0.00000000
        0.00000000     0.00000000    10.65964019
PRIMCOORD
24 1
Ti      2.34569197     3.75050803     3.95465048     0.03818861    -1.04663452     0.67978219
Ti      3.92496019     2.57840507     6.70498983    -0.03818861     1.04663452    -0.67978219
Ti      5.26393399     2.57840724     1.37512708     0.02072721     0.52304074    -0.50846412
Ti      1.00671823     3.75050611     9.28451335    -0.02072721    -0.52304074     0.50846412
Ti      2.18735395     0.58605160     1.37516980     0.03818861    -1.04663452    -0.67978219
Ti      4.08329821     5.74286168     9.28447063    -0.03818861     1.04663452     0.67978219
Ti      0.84838021     0.58604925     6.70494705    -0.02072721    -0.52304074    -0.50846412
Ti      5.42227201     5.74286403     3.95469326     0.02072721     0.52304074     0.50846412
O       1.99597804     2.22851788     5.43953280     1.39595064     1.37043860    -0.12315152
O       4.27467411     4.10039522     5.22010751    -1.39595064    -1.37043860     0.12315152
O       1.20406018     2.22854342     0.10974696    -1.17217485     0.97340073     0.20689289
O       5.06659204     4.10036974    10.54989304     1.17217485    -0.97340073    -0.20689289
O       4.11633609     0.93593861     0.10971240    -1.39595064    -1.37043860    -0.12315152
O       2.15431606     5.39297449    10.54992760     1.39595064     1.37043860     0.12315152
O       4.90825402     0.93591313     5.43956742     1.17217485    -0.97340073     0.20689289
O       1.36239808     5.39300009     5.22007289    -1.17217485     0.97340073    -0.20689289
O       0.40894218     3.84960372     2.87943480     0.41405164     0.05836201     0.53259033
O       5.86171003     2.47930938     7.78020557    -0.41405164    -0.05836201    -0.53259033
O       3.31737436     2.47925041     2.45041925     0.50532275     0.56282857    -0.09763022
O       2.95327786     3.84966269     8.20922087    -0.50532275    -0.56282857     0.09763022
O       0.25060416     0.68514711     2.45038523     0.41405164     0.05836201    -0.53259033
O       6.02004805     5.64376599     8.20925489    -0.41405164    -0.05836201     0.53259033
O       2.79493984     0.68520608     7.78023953    -0.50532275    -0.56282857    -0.09763022
O       3.47571238     5.64370702     2.87940072     0.50532275     0.56282857     0.09763022
