# total energy = -4988.89054635 eV

CRYSTAL
PRIMVEC
        4.24621509     0.00000000     0.00000000
       -0.00000791     3.47417578     0.00000000
       -2.12313587    -1.73712759     4.97622998
PRIMCOORD
6 1
Ti     -0.00018430     2.60576132     1.24405763    -0.00219829    -0.00357358     4.68766068
Ti      2.12325560    -0.86871334     3.73217251     0.00219829     0.00357358    -4.68766068
O       0.00004380     0.86853663     0.81058726     0.00068057     0.00228083    -0.93522704
O       2.12302739     0.86851124     4.16564293    -0.00068057    -0.00228083     0.93522704
O      -0.00002054    -0.86852873     3.29870214    -0.00161542    -0.00024888    -0.82874785
O       2.12309163     2.60557660     1.67752800     0.00161542     0.00024888     0.82874785
