# total energy = -19075.88079082 eV

CRYSTAL
PRIMVEC
        7.60600008     0.00000000     0.00000000
        0.00000000     7.60600008     0.00000000
       -1.89786986    -1.89786986     4.85670466
PRIMCOORD
22 1
Ti      3.81503703     6.58337002     1.20341098     1.30575374    -0.20889964    -0.61991634
Ti      3.77733098     2.87429900     1.17962901     0.39481232    -0.08448520     0.07384982
Ti      0.20224498     6.69085201     1.01254299    -0.66433037    -1.00654330     0.82862238
Ti     -0.06132598     2.79529199     1.19175299    -0.38596824     1.41293921     0.32483509
Ti      5.66272120     2.85846321     3.60320081    -0.38915512     0.52196267     0.15570709
Ti      5.99533821    -0.83596078     3.67124480     0.65694950    -1.30023126    -1.04530835
Ti      1.84470221     2.82835424     3.58981982     0.41330344    -1.10164664     0.22003123
Ti      1.51579521    -1.12565278     3.83109083    -0.32975156     1.47372448    -0.26297304
O       3.84454400     4.69766398     0.77472798    -0.33254738     1.53467456     0.38627214
O       4.13131801     1.03569000     0.65485499    -0.54666893    -1.15674103     1.53370423
O      -0.15143201     4.80533700     0.77229901     1.04714051     0.38010818    -0.25300487
O      -0.25791501     0.95282798     0.70937898     0.54981519     0.00811286     0.77946518
O       5.89411623     4.80774524     3.98594482    -0.15397725     0.10945473    -0.39393789
O       5.65443524     0.97526923     4.02506181     0.34997406    -0.02396706    -0.17183486
O       2.10205322     4.67380423     4.16401281    -0.95682817     1.03019000    -0.69752332
O       1.61634625     1.00142424     4.10281584     0.14777138    -0.91041897    -0.96478779
O       3.76313723     2.83382821     3.23253379     0.50678982    -0.24162208    -0.14386382
O      -0.03419480     2.86577723     3.16462384     0.30852632     0.02092416     0.04494316
O       5.61781199     6.53402202     1.80357402     0.20075772     0.78901220     0.89820854
O       5.70086599     3.03610002     1.63302602    -0.13427951    -0.63058540     0.05923001
O       2.08969900     6.65923599     2.04279199    -0.62217146     0.01165224    -0.86786205
O       1.92938697     2.97359302     1.60553801    -1.36591629    -0.62761474     0.11614320
