# total energy = -4985.78586987 eV

CRYSTAL
PRIMVEC
        3.56818648     0.00000000     0.00000000
        1.37237307     3.29371324     0.00000000
       -2.47031290    -1.64687870     4.65142722
PRIMCOORD
6 1
Ti      1.02918335     2.47041173     1.16285656     0.00091866    -0.00091866     0.00000000
Ti      1.44106341    -0.82357717     3.48857002    -0.00091866     0.00091866    -0.00000000
O       0.34313036     0.82342400     0.75767937     0.00046537     0.00079370    -1.38789820
O       2.12711623     0.82341050     3.89374726    -0.00046537    -0.00079370     1.38789820
O      -0.34309954    -0.82340345     3.08339288     0.00079370     0.00046537    -1.38789820
O       2.81334608     2.47023791     1.56803380    -0.00079370    -0.00046537     1.38789820
