# total energy = -39022.38369443 eV

CRYSTAL
PRIMVEC
        5.93200024     0.00000000     0.00000000
        0.00000000     9.29399984     0.00000000
        0.00000000     0.00000000     9.29399984
PRIMCOORD
46 1
Ti      4.33580401     6.73394699     7.04346302     0.01944552     1.82308174    -0.79802752
Ti      4.62880501     7.17323898     1.98393800    -2.15986090     0.67697531    -2.75758758
Ti      4.20698798     2.41404200     6.83098502     0.44616190     1.39591105    -0.11014173
Ti      4.65176500     1.84235499     2.85029398    -2.06620894     0.06067909     0.24498483
Ti      1.44636700     7.31615002     6.68276999    -0.03167857     2.21464753    -1.90649093
Ti      1.57250502     6.56057301     2.46512899     0.15921074     0.76488753    -2.73428027
Ti      1.30877298     2.06675800     8.36212299     0.07970654     3.21565421    -0.52146182
Ti      1.49078598     2.14809699     4.17755498     1.11335982     2.51783624     1.03339231
Ti      3.11955000     4.73508301     4.42336501    -2.23320601    -0.85816642    -0.68424974
Ti      3.11932801     5.04151399     8.96959302    -3.64943804     0.54526485    -1.09006973
Ti      3.00404299     9.00048199     4.40760399     0.11001420     0.36560741    -2.51416187
Ti      2.91198901     0.44408401     0.15086801     2.42094804    -6.77203447     2.11942154
Ti      5.92755499     4.74106398     4.31724502     1.61009353    -1.29852842     2.15868976
Ti      5.76578800     5.23019400     9.17542201     1.95338941    -1.02996605    -0.14425822
Ti      0.05948900     9.07083902     4.20573198     0.80629311    -1.28563922     1.82640746
Ti      5.75726200     9.12026899     9.05180102     1.82253204    -1.65063804     1.95261782
O       4.31682099     5.39338501     5.54853301     1.82555668     0.59036484     0.73936598
O       4.18448001     5.30697502     1.04960402     1.74695315     0.36892053    -0.01581820
O       4.46949101     0.89769899     4.54901201     0.79820441     0.38881445     2.99387694
O       4.63423003     0.80539100     0.99299100    -0.16852868     2.36139895     0.85882128
O       1.48849401     5.76547800     5.39621097    -0.41811527    -0.83948966    -1.13631772
O       1.50078002     5.68982000     0.79529297     0.27241311     2.59669354     2.81829212
O       1.51359198     0.47072698     5.24263098    -0.76280571     2.20946161     0.78662005
O       1.36627798     1.08722900     0.59220501    -2.15720135     2.51325916     2.48129082
O       4.46909598     8.25450601     8.28062800    -2.48509425     0.41420462    -0.15591870
O       4.74862000     8.61743699     2.94815801    -1.07416076    -0.32056629     2.44470658
O       4.46285301     4.11973998     7.94377302     0.33585896    -1.41161381    -0.45161238
O       4.48830702     3.80055699     3.42130502    -2.04591213    -0.45362298    -2.36455241
O       1.60751698     9.07158500     8.02334800     0.15010389    -1.27582917    -0.64700704
O       1.59018499     8.10279603     3.51962398    -1.40742496    -0.11146122     0.04270912
O       1.43491603     4.05686002     8.92571798    -1.24877807    -5.28226347    -3.18831488
O       1.53452899     3.94609698     3.36685199    -0.09988637     0.75842455     0.00241118
O       2.52711400     6.42473702     7.69496102     3.08116901    -3.11242926     3.09018278
O       3.23199398     6.29365199     3.19500401    -0.37438695    -0.98563970     0.50589122
O       3.17493401     1.90125999     8.44972098     1.56051750     2.31252766    -3.19716102
O       2.74914302     1.25626600     3.08048598     1.61648761     1.17712474    -1.09124523
O       0.03275602     6.49968001     7.94600599     1.50454765    -1.27680028     0.30505739
O       5.66957198     5.93686402     2.95493100     2.22076341     0.91624175     0.38292585
O       5.66797498     1.32323301     8.01466499    -2.55621022     3.31903059    -3.90917303
O       3.16500299     8.18041903     5.90104602     0.62467057    -2.91967616     2.28552490
O       3.06590402     8.19659597     1.31546903    -0.30587603    -2.29971790    -0.34017507
O       2.85115897     2.90623098     5.41140402     0.49481310     0.27415375     1.60798111
O       5.76920098     7.77180100     6.14337703    -1.71857124     1.74480087    -3.35048291
O       0.28390000     7.96569102     1.15017601    -0.51479084    -2.42475481     0.72887434
O       5.74837801     2.86168701     4.90826198     1.76191029    -0.00566800     2.60417366
O       0.43406600     1.19286400     2.97012702    -1.05698887     0.08853906    -0.90571102
