# total energy = -19961.28076710 eV

CRYSTAL
PRIMVEC
        7.60600008     0.00000000     0.00000000
        0.00000000     7.60600008     0.00000000
       -1.89786986    -1.89786986     4.85670466
PRIMCOORD
24 1
Ti      3.78904400     6.52177099     1.23791598    -0.62912681     1.39412053    -0.31008878
Ti      3.82817099     2.86817499     1.23742099    -1.31613277    -1.47901170    -0.78107006
Ti      0.00511201     6.72767899     1.17912503     0.71208297    -0.02284966     0.87496704
Ti     -0.01457502     2.91963700     1.21638498     0.74603414    -0.08277233    -0.43549953
Ti      5.71756820     2.88374121     3.63466183     0.33823106    -0.45231326     0.11454757
Ti      5.73930320    -0.96888079     3.60358182     0.05947812     0.70362044    -0.02336439
Ti      1.91343625     2.82413225     3.63536082    -0.66259641    -0.32020351    -0.26583057
Ti      1.91776820    -1.04242679     3.65561381    -0.24223117     0.53164494     0.84598736
O       3.58475898     4.64069498     0.78300299     0.69236157     1.23098526    -0.14506015
O       3.64991298     0.82425903     0.87573998     0.89766963     1.23718213    -0.39967428
O       0.05474000     4.85412699     0.73218001    -0.37090234     0.03848223     0.01818670
O      -0.00884298     1.01286499     0.73139900    -0.21778332    -0.47133249     0.27481092
O       5.90301525     4.83866623     3.98476380    -0.26754935    -0.87701647     0.48419264
O       5.72082021     1.02311024     4.07055984    -0.23503671    -0.09466343    -0.67267643
O       1.73900821     4.69183023     4.09056782     0.49095850    -0.54618916     0.03015545
O       1.79325523     0.87151625     4.11371483     0.97789374     0.20318690     0.03932684
O       3.80789620     3.03312022     3.27484781     0.02770236    -0.71102239    -0.05213299
O       3.78178120    -1.08689975     3.21204780     1.01280033    -0.06627124     0.81129185
O       0.08062021     2.67340722     3.11113783    -2.45551884     0.35548985     0.97058563
O       0.07658624    -0.99908279     3.16840481    -1.50548070     0.46233748    -0.60464475
O       5.66986001     6.64186999     1.63527899     1.19837903     0.07601289    -0.35676898
O       5.63878800     3.01553000     1.60684900     0.92125591    -0.25391299     0.23428029
O       1.97343701     6.69852598     1.68989701    -1.82703610    -0.29405923    -0.38655522
O       1.79978702     3.01657100     1.66832299     1.65454715    -0.56144506    -0.26496616
