# total energy = -39026.57806024 eV

CRYSTAL
PRIMVEC
        5.93200024     0.00000000     0.00000000
        0.00000000     9.29399984     0.00000000
        0.00000000     0.00000000     9.29399984
PRIMCOORD
46 1
Ti      4.46544100     6.85557102     6.66690102    -0.07057578     0.51639829     0.18645853
Ti      4.40145400     7.31637598     2.53425599     1.10300469    -2.45787423     0.45625631
Ti      4.50160900     2.41818101     7.06792900    -2.74711933    -1.67322134    -0.83294980
Ti      4.00168398     2.36255702     2.02986900     1.74565525    -1.90163257     2.15074248
Ti      1.39194599     6.56797202     6.97400602     1.81262249     0.18682620     0.55083849
Ti      1.49654702     7.28026000     2.47000901    -1.30860689    -3.34803367    -1.42183266
Ti      1.36095297     2.54554302     6.93832598     3.20035639    -0.06293677     0.20394435
Ti      1.02748399     2.06297401     2.50164798     1.28041628     0.54010670    -1.59780468
Ti      3.03058001     4.58329100     4.48197203     0.78974445    -2.10332643    -0.19349590
Ti      3.00182701     5.00335301     0.06910298    -1.22966165     2.54483154     0.25050036
Ti      3.03668698     9.19386701     4.84574799     1.23787762     2.34452788     0.01296839
Ti      3.06107099     9.21188899     9.08513802     1.01958702     1.57688361     0.10230449
Ti      0.08765599     4.60609198     4.60634598    -1.31336061    -0.24973854    -2.44200975
Ti      5.82893599     4.56836598     9.10613101     0.36207934     0.85234698     1.12329765
Ti      0.14597201     9.26443402     4.96257102    -1.49068631     1.29614269     0.08403859
Ti      0.17083101     9.02919700     9.22358201    -2.79764410     1.62157120     2.08103573
O       4.49964702     5.27313900     5.46080600     0.08640735     2.51334940     0.69726698
O       4.54077298     5.65025802     0.90675998    -0.31252799    -1.45537837     0.09431864
O       4.61479800     0.82600102     5.89118898    -0.66673332    -0.25834017    -0.30497100
O       4.72265798     0.84266598     0.51554998    -3.33818223     1.80017269     2.62345694
O       1.48655399     5.33247501     5.40287400     0.47560670     1.50072390     2.67645382
O       1.65620001     6.21545298     0.84972700     1.04085879    -3.55602442    -1.27208153
O       1.41399299     0.83342300     5.88526198     1.81203910     0.60155943    -1.37749191
O       1.60975402     0.74565498     0.92706499    -0.60940593     0.64004115     1.30085296
O       4.49916700     8.34720702     8.33190998     0.28675807    -0.82673390    -1.34680450
O       4.67138901     8.47243602     3.94744702    -1.54502480    -0.76789290    -0.57232263
O       4.33050499     3.89793402     8.33264998     0.48533858    -0.92708255     0.91845444
O       4.39279100     3.39392798     3.85196402    -0.04790404     0.84623804    -2.88579080
O       1.43719900     8.36930101     8.24277198     2.43230306    -1.63367158    -1.56717255
O       1.65318503     8.36544199     3.88437501     0.22767950     2.99921789     1.10101132
O       1.49704202     4.28617300     8.00797101    -0.80369475    -0.30262795     1.77660775
O       1.53766600     3.59620001     3.57596702    -0.99059396    -1.17251526    -0.42656777
O       3.25416502     6.06980398     7.83090999    -2.25753868     0.01699577    -0.09048487
O       2.81686400     6.04120999     3.36092198     1.69899768     1.31522260    -1.34597378
O       2.78043099     1.64663497     7.88282397     1.77467685    -1.02031233     1.09611851
O       3.36502300     1.05780400     3.43524498    -1.53398242     2.26326196    -1.91412788
O       5.67144998     6.03412103     7.83982499     1.90101088     0.33993647    -0.23814878
O       0.21416100     6.42920698     3.53118402    -1.32358974    -2.40516428    -0.89910508
O       0.14633100     1.69161901     8.01397299    -0.85847238     0.45528469    -0.32547196
O       2.95680900     7.74439401     6.18909498    -0.86618004     0.40022398    -1.31578876
O       3.18512602     8.07731201     1.48614298    -0.50893026     0.44782052     0.01634759
O       2.96720098     3.31271901     6.03175799     0.10405721    -0.81848888     0.25702222
O       0.21443903     7.75013199     5.80365603    -0.17612372    -3.50448484     3.32935563
O       5.81868000     7.76040400     1.50217398     0.86945974     2.36907395    -1.30997060
O       5.80777800     3.21249797     5.93487500     0.60165559    -0.09499458     0.56681739
O       5.71235797     3.00949801     1.46524000     0.44834682     0.55171729     0.02389738
