# total energy = -19961.15762479 eV

CRYSTAL
PRIMVEC
        7.60600008     0.00000000     0.00000000
        0.00000000     7.60600008     0.00000000
       -1.89786986    -1.89786986     4.85670466
PRIMCOORD
24 1
Ti      3.73932197     6.63816299     1.27448398    -0.25576264    -0.15684481    -1.38421998
Ti      3.77628802     2.88918502     1.18356001    -1.14497231     0.05960565     0.01830446
Ti     -0.03798000     6.66491698     1.24729300     0.52089875     0.34508048    -0.53381495
Ti     -0.05087298     2.89962399     1.20037599     1.18480900    -0.64029286     0.34248084
Ti      5.68635521     2.89271225     3.63212183     1.39785814    -0.17075757     0.42762269
Ti      5.73194621    -0.95554176     3.62899783     1.09335071     0.09938320     0.35770846
Ti      1.93687324     2.77373722     3.61696582    -1.43899812     1.22986348     0.05216076
Ti      1.97887621    -1.03091677     3.67778580    -1.39680528    -1.10562619    -0.07802530
O       3.66282803     4.78010599     0.75488500     0.66910928    -0.37172123     0.19183239
O       3.63775000     0.93373299     0.82337302     0.67450525     0.22882621     0.14275259
O       0.06428001     4.74929703     0.74909898    -0.72270600     0.81211820    -0.36740486
O       0.07067199     0.98623600     0.74798299    -0.54081787     0.40707443     0.03302300
O       5.97121122     4.85163324     4.05024382    -0.68125183    -1.85802716    -0.02814536
O       5.98061523     1.00595622     3.99384782    -1.49064826    -0.32496776     0.16279923
O       1.66331522     4.74335823     4.04192182     0.96104169     0.29439913     0.60601850
O       1.79865421     0.91864324     4.11271780     0.85240020    -0.26762906    -0.41093494
O       3.82057121     2.96503421     3.30321282     0.22908126    -0.44502341    -0.34108987
O       3.83094325     6.31173223     3.24096380    -0.04280348     1.06327882     0.06371247
O       0.08187325     2.72916621     3.16631281    -1.99101469     0.47619625    -0.46470881
O      -0.00690079    -1.06342979     3.11177882     0.29418162     0.67996551     0.52590392
O       5.72481999     6.70653597     1.55009701    -0.94577705     0.11524049     0.17462759
O       5.62248500     2.92256800     1.54773699     0.77216402    -0.04877796     0.47885271
O       1.91034802     6.67105300     1.68251102     0.32396272     0.20171032     0.43206093
O       1.83592300     3.03063600     1.68797600     1.67819514    -0.62307340    -0.40151622
