# total energy = -19073.44493834 eV

CRYSTAL
PRIMVEC
        5.17600016     0.00000000     0.00000000
        0.00000000     5.50899976     0.00000000
        0.00000000     0.00000000     9.26300011
PRIMCOORD
22 1
Ti      1.77457199     3.33695898     3.18883301     1.02874735     1.09299564     0.09916800
Ti      3.54564098     2.26902399     6.01082802     0.62388124    -0.45629745    -0.25025302
Ti      4.45892202     2.13361198     1.25257102    -0.48765926    -0.50412307    -1.43611000
Ti      0.73720101     3.30566101     8.11703603     0.29438936     0.69256726     1.52122203
Ti      1.80441499     0.49528202     1.32875201    -0.21414418     0.60004068    -2.15077256
Ti      3.23130700     5.01304198     8.01026197     0.72507630     1.71117957     1.43518800
Ti      0.55816600     0.39068299     5.96984102     1.65571392     0.34210854    -0.78382449
Ti      4.39143303     4.91474101     3.44143498    -0.45730840    -0.08853288     0.74323344
O       3.36652898     3.40414502     4.53305398    -0.71562184     0.32731904     0.18887202
O       0.91695998     2.08128900     0.31570498    -0.27887301    -0.51248970    -0.93078854
O       4.42968302     3.93211903     9.07512901    -0.21506437    -1.16423657    -0.08622172
O       3.40883401     0.86421302     0.10556102     0.64391657     1.32889059    -0.03442554
O       1.53292600     4.84530698     9.19590001     0.00877364    -0.28390543    -1.87303881
O       4.65887900     0.97977501     4.61256699    -2.49152253     0.84497511     0.51833202
O       0.86643001     4.76688598     4.31564299     1.59830039    -2.04120547     1.14791803
O       0.08272199     3.47881801     2.36417800    -0.05643214    -0.67195138     0.87386378
O       0.35312601     2.36514602     6.48093898    -1.25517523    -0.76486954     0.55968771
O       2.74663901     1.96899801     2.24495003    -0.31251822     0.09167914     1.16440137
O       2.65164100     3.39451299     7.53003299    -1.13658460    -2.46641364    -2.48203104
O       0.00858198     0.49494202     2.14860098     0.51615172     1.74808777    -1.17290556
O       2.48927000     0.54233900     6.41515701    -0.19062474     0.96878972     0.29739396
O       2.69463300     4.62275498     2.11415302     0.71657803    -0.79460795     2.65109116
