# total energy = -19920.40928513 eV

CRYSTAL
PRIMVEC
        6.33272845     0.00000000     0.00000000
        1.97751956     6.44330510     0.00000000
        0.00000000     0.00000000    11.46678828
PRIMCOORD
24 1
Ti      3.46718570     3.81829667     4.25409667    -0.16615143    -2.06682344     0.71678320
Ti      4.84306220     2.62500858     7.21269167     0.16615143     2.06682344    -0.71678320
Ti      6.26721315     2.62501079     1.47925169    -0.10601099    -0.69741893    -0.05764235
Ti      2.04303485     3.81829469     9.98753678     0.10601099     0.69741893     0.05764235
Ti      2.47842607     0.59664422     1.47929766    -0.16615143    -2.06682344    -0.71678320
Ti      5.83182186     5.84666121     9.98749080     0.16615143     2.06682344     0.71678320
Ti      1.05427509     0.59664182     7.21264570     0.10601099     0.69741893    -0.05764235
Ti      7.25597284     5.84666362     4.25414264    -0.10601099    -0.69741893     0.05764235
O       2.70066676     2.26879731     5.85141429     1.83123857     2.07838852    -0.69651236
O       5.60958115     4.17450800     5.61537405    -1.83123857    -2.07838852     0.69651236
O       1.85837893     2.26882330     0.11805703    -0.58956214    -0.17011890     1.16702133
O       6.45186905     4.17448206    11.34873099     0.58956214     0.17011890    -1.16702133
O       4.62082149     0.95285537     0.11801983    -1.83123857    -2.07838852    -0.69651236
O       3.68942642     5.49044994    11.34876819     1.83123857     2.07838852     0.69651236
O       5.46310938     0.95282943     5.85145149     0.58956214     0.17011890     1.16702133
O       2.84713847     5.49047595     5.61533685    -0.58956214    -0.17011890    -1.16702133
O       1.43292217     3.91918346     3.09746559     0.53946701     1.97189365     1.98285426
O       6.87732574     2.52412184     8.36932275    -0.53946701    -1.97189365    -1.98285426
O       4.17112107     2.52406176     2.63596505     0.70970418     1.79930185     1.02247566
O       4.13912684     3.91924355     8.83082310    -0.70970418    -1.79930185    -1.02247566
O       0.44416245     0.69753084     2.63592842     0.53946701     1.97189365    -1.98285426
O       7.86608540     5.74577448     8.83085972    -0.53946701    -1.97189365     1.98285426
O       3.15036718     0.69759091     8.36935932    -0.70970418    -1.79930185     1.02247566
O       5.15988073     5.74571440     3.09742896     0.70970418     1.79930185    -1.02247566
