# total energy = -4981.79047813 eV

CRYSTAL
PRIMVEC
        4.11120312     0.00000000     0.00000000
       -0.00000705     3.03871552     0.00000000
       -2.05562672    -1.51939751     4.66746137
PRIMCOORD
6 1
Ti     -0.00017754     2.27914854     1.16686507    -0.00524531    -0.01037441    12.63358132
Ti      2.05574669    -0.75983052     3.50059561     0.00524531     0.01037441   -12.63358132
O       0.00004288     0.75967169     0.76029119     0.00452052     0.01028185    -4.50139241
O       2.05552612     0.75964628     3.90716949    -0.00452052    -0.01028185     4.50139241
O      -0.00001840    -0.75966876     3.09402172    -0.00097496    -0.00027125     0.74532220
O       2.05558735     2.27898663     1.57343900     0.00097496     0.00027125    -0.74532220
