# total energy = -19518.08511535 eV

CRYSTAL
PRIMVEC
        7.60600008     0.00000000     0.00000000
        0.00000000     7.60600008     0.00000000
       -1.89786986    -1.89786986     4.85670466
PRIMCOORD
23 1
Ti      3.86592398     6.63522701     1.23683699    -0.64683786    -1.40697194    -0.20617632
Ti      3.85168901     2.82240697     1.17419098    -0.81425273     1.21931116     0.93359362
Ti      0.02362999     6.73291699     1.24364300     0.92536788    -1.44089303     0.06004171
Ti     -0.02987100     2.84125399     1.14143602     0.93302154     1.90214962    -0.69132902
Ti      5.59609223     2.95106621     3.54283581    -1.02445952    -0.94149719     3.61655490
Ti      5.69352625    -0.98717677     3.65465383     1.08731813     1.67838051    -0.25211296
Ti      1.84047721     2.72768721     3.54602480     0.88274797     1.03363836     1.40193694
Ti      1.88182521    -1.00870376     3.69997981    -0.73350335    -0.37138262    -1.43345688
O       3.73443402     4.69587298     0.71402500    -0.01311032     0.42491892     0.48741912
O       3.92220902     0.89739900     0.98362800    -0.03476004     0.26259329    -1.12577413
O       0.13965601     4.68426199     0.66829001    -0.03834313     1.37594694     0.40194405
O       0.09724902     0.94455599     0.85969702    -0.41510656    -0.08358814    -0.37092856
O       5.75177824     4.82834420     4.08091282     0.02214003    -1.18375767    -0.11316432
O       5.47933922     0.97167225     4.11886584     0.40171779    -0.66134866    -1.61866431
O       1.62899723     4.76400821     3.99940682     0.49194581    -0.09549543     0.89430843
O       2.16111422     0.92196123     4.03961281    -0.88402864    -0.46841583     0.61289723
O       3.67541424     2.99712823     3.28831780     1.66948115    -0.06038418    -1.02284101
O       3.89206624    -0.85576979     3.15669581    -1.02147447    -0.90784067     0.02773784
O       0.04574822    -0.68722276     3.36433681    -0.52699664    -0.15206487    -0.25993014
O       5.84861799     6.36660600     1.63080898    -1.65020970     0.56520042     0.35225746
O       5.75290401     2.96055901     1.71797701    -0.22693439    -0.14716229    -1.31804079
O       1.81858001     6.52265000     1.70788999     1.84024592     0.26088608     0.40121000
O       1.83692399     2.94667901     1.68397499    -0.22396914    -0.80222279    -0.77748337
