# total energy = -19928.25064130 eV

CRYSTAL
PRIMVEC
        6.52662381     0.00000000     0.00000000
        0.00002297     3.74031620     0.00000000
        0.00000000     0.00000000     9.87423631
PRIMCOORD
24 1
Ti      2.36560091     2.21650804     3.66327138    -0.42525008     1.74411902    -1.46090419
Ti      4.16104601     1.52380848     6.21096534     0.42525008    -1.74411902     1.46090419
Ti      5.62880096     1.52380980     1.27380756    -0.42402495    -1.74439927     1.46338479
Ti      0.89784596     2.21650682     8.60042926     0.42402495     1.74439927    -1.46338479
Ti      2.36558953     0.34634999     1.27384714    -0.42525008     1.74411902     1.46090419
Ti      4.16105740     3.39396663     8.60038969     0.42525008    -1.74411902    -1.46090419
Ti      0.89783458     0.34634851     6.21092577     0.42402495     1.74439927     1.46338479
Ti      5.62881234     3.39396805     3.66331095    -0.42402495    -1.74439927    -1.46338479
O       2.06572579     1.31702898     5.03874737     3.30060580    -1.53426781     2.73381310
O       4.46092113     2.42328748     4.83548935    -3.30060580     1.53426781    -2.73381310
O       1.19764055     1.31704405     0.10166078    -3.29974654    -1.53460360     2.73384369
O       5.32900643     2.42327246     9.77257563     3.29974654     1.53460360    -2.73384369
O       4.46090975     0.55312938     0.10162875    -3.30060580     1.53426781     2.73381310
O       2.06573717     3.18718713     9.77260766     3.30060580    -1.53426781    -2.73381310
O       5.32899505     0.55311431     5.03877940     3.29974654     1.53460360     2.73384369
O       1.19765178     3.18720220     4.83545727    -3.29974654    -1.53460360    -2.73384369
O       0.23714130     2.27507237     2.66727766     1.34923959    -0.20792493     1.57721939
O       6.28950563     1.46524414     7.20695906    -1.34923959     0.20792493    -1.57721939
O       3.50046125     1.46520917     2.26987207     1.34959569     0.20809771    -1.57762100
O       3.02618567     2.27510734     7.60436445    -1.34959569    -0.20809771     1.57762100
O       0.23712992     0.40491422     2.26984055     1.34923959    -0.20792493    -1.57721939
O       6.28951701     3.33540229     7.60439597    -1.34923959     0.20792493     1.57721939
O       3.02617429     0.40494919     7.20699053    -1.34959569    -0.20809771    -1.57762100
O       3.50047263     3.33536732     2.66724614     1.34959569     0.20809771     1.57762100
