# total energy = -19931.29395799 eV

CRYSTAL
PRIMVEC
        6.06884692     0.00000000     0.00000000
        2.19353448     6.07521483     0.00000000
        0.00000000     0.00000000    11.03731293
PRIMCOORD
24 1
Ti      3.49955170     3.60016659     4.09476439     0.14418186    -2.42868989     0.79362759
Ti      4.76282991     2.47504808     6.94254866    -0.14418186     2.42868989    -0.79362759
Ti      6.12763739     2.47505015     1.42384806    -0.76417200    -0.87689640     0.22757177
Ti      2.13474425     3.60016470     9.61346511     0.76417200     0.87689640    -0.22757177
Ti      2.40278462     0.56255933     1.42389232     0.14418186    -2.42868989    -0.79362759
Ti      5.85959702     5.51265546     9.61342086    -0.14418186     2.42868989     0.79362759
Ti      1.03797705     0.56255710     6.94250441     0.76417200     0.87689640     0.22757177
Ti      7.22440460     5.51265776     4.09480864    -0.76417200    -0.87689640    -0.22757177
O       2.69320920     2.13918635     5.63225631     1.77781874     2.12155762    -0.82797317
O       5.56917241     3.93602832     5.40505674    -1.77781874    -2.12155762     0.82797317
O       1.88602025     2.13921086     0.11363535    -0.29558518    -0.52136746     1.32932870
O       6.37636144     3.93600387    10.92367739     0.29558518     0.52136746    -1.32932870
O       4.47240531     0.89842094     0.11359954    -1.77781874    -2.12155762    -0.82797317
O       3.78997631     5.17679373    10.92371321     1.77781874     2.12155762     0.82797317
O       5.27959432     0.89839643     5.63229212     0.29558518     0.52136746     1.32932870
O       2.98278723     5.17681825     5.40502093    -0.29558518    -0.52136746    -1.32932870
O       1.55472722     3.69528995     2.98145358     0.55139487     2.18076834     2.09773377
O       6.70765440     2.37992472     8.05585947    -0.55139487    -2.18076834    -2.09773377
O       4.11421288     2.37986813     2.53723802     0.89155195     1.75257538     0.99002035
O       4.14816874     3.69534654     8.50007484    -0.89155195    -1.75257538    -0.99002035
O       0.45796011     0.65768257     2.53720276     0.55139487     2.18076834    -2.09773377
O       7.80442150     5.41753210     8.50011011    -0.55139487    -2.18076834     2.09773377
O       3.05140163     0.65773916     8.05589461    -0.89155195    -1.75257538     0.99002035
O       5.21097998     5.41747551     2.98141838     0.89155195     1.75257538    -0.99002035
