# total energy = -4985.67031600 eV

CRYSTAL
PRIMVEC
        3.49958196     0.00000000     0.00000000
        1.02676488     3.34556838     0.00000000
       -2.26320501    -1.67280753     4.51849984
PRIMCOORD
6 1
Ti      0.76996657     2.50930454     1.12962469     0.00157172    -0.00151129    -0.00095568
Ti      1.49317505    -0.83654386     3.38887447    -0.00157172     0.00151129     0.00095568
O       0.25672782     0.83638746     0.73602658     0.00064278     0.00156246     0.23234811
O       2.00641364     0.83637315     3.78247259    -0.00064278    -0.00156246    -0.23234811
O      -0.25670087    -0.83636754     2.99527635     0.00149253     0.00058030     0.23174287
O       2.51984232     2.50912805     1.52322286    -0.00149253    -0.00058030    -0.23174287
