# total energy = -19942.16428977 eV

CRYSTAL
PRIMVEC
        6.16820323     0.00000000     0.00000000
        0.00003070     5.93961111     0.00000000
        0.00000000     0.00000000    10.54037669
PRIMCOORD
24 1
Ti      2.23569522     3.51980799     3.91040467     0.15572072    -0.67029198     0.54634625
Ti      3.93253870     2.41980300     6.62997238    -0.15572072     0.67029198    -0.54634625
Ti      5.31968934     2.41980505     1.35974175     0.15637944     0.67039174    -0.54651106
Ti      0.84854465     3.51980625     9.18063548    -0.15637944    -0.67039174     0.54651106
Ti      2.23567993     0.55000255     1.35978404     0.15572072    -0.67029198    -0.54634625
Ti      3.93255405     5.38960862     9.18059319    -0.15572072     0.67029198     0.54634625
Ti      0.84852930     0.55000039     6.62993016    -0.15637944    -0.67039174    -0.54651106
Ti      5.31970463     5.38961084     3.91044695     0.15637944     0.67039174     0.54651106
O       1.95228609     2.09143797     5.37867368     1.07863088     1.13716335    -0.28554245
O       4.21594789     3.84817302     5.16170337    -1.07863088    -1.13716335     0.28554245
O       1.13187328     2.09146199     0.10851909    -1.07827581     1.13760250    -0.28629450
O       5.03636076     3.84814906    10.43185772     1.07827581    -1.13760250     0.28629450
O       4.21593254     0.87836740     0.10848492    -1.07863088    -1.13716335    -0.28554245
O       1.95230144     5.06124359    10.43189189     1.07863088     1.13716335     0.28554245
O       5.03634541     0.87834344     5.37870792     1.07827581    -1.13760250    -0.28629450
O       1.13188845     5.06126761     5.16166919    -1.07827581     1.13760250     0.28629450
O       0.22412387     3.61280820     2.84721877    -0.09367226    -0.13366682     0.15995893
O       5.94411012     2.32680286     7.69315828     0.09367226     0.13366682    -0.15995893
O       3.30823094     2.32674757     2.42300327    -0.09406024     0.13357169    -0.16015716
O       2.86000298     3.61286348     8.11737366     0.09406024    -0.13357169     0.16015716
O       0.22410852     0.64300258     2.42296957    -0.09367226    -0.13366682    -0.15995893
O       5.94412541     5.29660847     8.11740730     0.09367226     0.13366682     0.15995893
O       2.85998769     0.64305786     7.69319191     0.09406024    -0.13357169    -0.16015716
O       3.30824629     5.29655313     2.84718514    -0.09406024     0.13357169     0.16015716
