# total energy = -19959.17244500 eV

CRYSTAL
PRIMVEC
        7.60600008     0.00000000     0.00000000
        0.00000000     7.60600008     0.00000000
       -1.89786986    -1.89786986     4.85670466
PRIMCOORD
24 1
Ti      3.85597899     6.55347701     1.26692500     1.21646495     0.06332989    -1.66555585
Ti      3.64695303     2.79108000     1.20475901     3.90148106    -0.60824404     0.26273085
Ti      0.03012601     6.81369400     1.31165800    -1.35114349    -2.33388017    -1.77047721
Ti      0.08799900     2.89241300     1.24619501    -3.98072069     3.52229025    -0.08283789
Ti      5.70410022     2.95400521     3.56296879    -0.57987602     0.29604438    -0.19060289
Ti      5.69049422    -0.84399279     3.67270380    -0.64292361    -0.05232120    -0.60005816
Ti      1.93293320     2.67375124     3.60206779     0.47594994     0.97922197     1.20362023
Ti      1.86854223    -1.10987075     3.59607179     0.75378885    -0.29045480     1.03148789
O       3.92765002     4.67013899     0.81991702    -1.07591194    -0.79563331    -0.92855194
O       3.84620202     0.82515498     0.90179699    -0.39358488     0.86674362    -1.96924927
O      -0.04511098     4.83297498     0.97123298     0.74054252    -0.26922031    -1.26794796
O      -0.15711299     1.11320499     0.86955702     0.73887464    -1.40329783    -0.70404390
O       5.44331823     4.80934425     4.11965579     0.93567030     0.82629141     0.63470585
O       5.56587324     1.09194424     3.78611781     1.33811597    -1.54033408     2.01032548
O       2.02221324     4.50901224     3.99800980    -0.02984718     3.06580074     0.07932345
O       2.01962021     0.82586423     3.86185482    -1.13501134    -0.54284827     1.38414464
O       3.77680725     2.62144122     3.17877981    -1.77366460     0.91048993    -0.82883912
O       3.92678725    -0.85936078     3.05759779    -1.43075285    -0.57304923     2.45836223
O      -0.01700876     3.10496524     3.19403784     0.48765335    -1.28659130    -0.22114324
O      -0.02954677    -0.88762678     3.26952180     1.60755611    -0.20146272     0.80803555
O       5.81232099     6.57945602     1.68115400    -0.32083394     0.42117976    -0.08786748
O       5.56973100     2.95728399     1.64927800     0.96231645    -0.20627840     0.21041428
O       2.00002499     6.62726099     1.71281102    -1.83022864    -0.24380212    -0.45531194
O       1.83912098     2.95678402     1.48805500     1.38608506    -0.60397421     0.68933615
