# total energy = -19961.40155931 eV

CRYSTAL
PRIMVEC
        7.60600008     0.00000000     0.00000000
        0.00000000     7.60600008     0.00000000
       -1.89786986    -1.89786986     4.85670466
PRIMCOORD
24 1
Ti      3.78313399     6.53222298     1.25174698     0.73289863    -0.08060848     0.21775658
Ti      3.77782697     2.78609499     1.20614497     0.43292380    -0.12083444     1.10255295
Ti      0.05281602     6.72158699     1.27785601    -0.95841454    -0.30747191    -1.48768224
Ti      0.01335998     2.91282500     1.14826298    -0.25762849     0.46937331    -0.75491165
Ti      5.70862024     2.99284221     3.58749880    -1.61408568    -0.02597869     0.14230393
Ti      5.73257323    -0.88668178     3.65449280    -0.58709723    -0.00730065    -0.27795178
Ti      1.79974125     2.79780023     3.63212881     1.25281702    -0.18630426    -0.36192816
Ti      1.87748125    -1.00566977     3.66628181     0.66151938    -0.12759156     0.59419604
O       3.78522000     4.64968301     0.79156000    -0.26083671     0.60762904     0.07886965
O       3.79536100     0.87161901     0.79024499    -0.14375840    -0.94890403     0.00361523
O       0.16523200     4.91298801     0.65196098    -0.57822820    -1.38968640     1.62689878
O       0.06407500     1.01629898     0.74544998    -0.20031138     0.26602057     0.56717760
O       5.78742621     4.85357124     4.06198881     0.07914887     0.50885981    -0.15945011
O       5.76845124     1.12373821     3.98464183    -0.53078233    -1.86061086     0.75572309
O       1.84392723     4.58245823     4.10794383    -0.42520046     1.75897871    -0.04982466
O       1.91326321     0.86678424     4.10922984    -0.10151413    -0.00958482    -0.89115703
O       3.75513723     2.91814223     3.25200582    -0.42521460    -0.26581720    -0.30732176
O       3.82136921    -1.12962880     3.25580182    -0.85876677     0.67256638    -0.18923275
O      -0.11706777     2.87353920     3.05615880     2.44343980     0.18594791     0.73555766
O      -0.01117675    -0.80226578     3.19875979     1.03769556    -0.22911829     0.74682373
O       5.74130000     6.57218703     1.71032601    -0.62522541     0.18612994    -0.98998744
O       5.63734599     2.85557401     1.63475500     0.46448436     0.13468832    -1.27117959
O       1.87728302     6.47478200     1.68647303     1.08348024     0.59812932     0.20104209
O       1.88788900     2.76000899     1.63856799    -0.62134305     0.17148853    -0.03189043
