# total energy = -19070.29708581 eV

CRYSTAL
PRIMVEC
        5.17600016     0.00000000     0.00000000
        0.00000000     5.50899976     0.00000000
        0.00000000     0.00000000     9.26300011
PRIMCOORD
22 1
Ti      1.95282598     3.49337801     2.98212002    -5.17542895    -0.08654182    -2.92439619
Ti      3.41250602     2.52413601     5.72205700     2.04235475    -1.27369593     0.90613551
Ti      4.34765102     2.49860701     1.37843599     3.98882866    -0.32430879    -1.32903277
Ti      0.93272502     2.00130502     8.05397403    -1.56796059    -0.34864480     0.55212430
Ti      1.84952301     0.79415000     1.42998102    -2.19721235     0.62750238    -0.33671951
Ti      3.15331098     5.27672900     8.10693297     2.22266371     1.95403758     0.84465321
Ti      0.81279398     5.02281202     6.40482498     0.59609609    -2.05132251    -0.94832964
Ti      4.24831598     5.09807098     3.51222900     1.64973019     1.81522624    -0.40039522
O       2.90762700     3.83658697     4.33472099     1.58436732    -1.12092272     3.03258311
O       1.22167601     2.62229198     0.78418798    -1.30211794    -0.32299624    -2.25106876
O       0.03429402     3.25140600     6.43855299    -0.78344859    -0.80813968     0.94444059
O       3.95334602     1.08422201     0.24634402    -0.41944170     0.62633510    -0.60801007
O       1.53230702     0.15353702     8.92596701    -0.99697030    -0.11771954    -0.34875588
O       3.70545601     0.85636500     4.62528201    -1.44371944     2.67010525     1.30558070
O       0.65414801     5.04944398     4.69529301     0.26017851     0.69698056    -0.60565031
O       5.07351498     3.42945102     3.09394200     1.67280790    -0.72138265    -1.67023860
O       4.82961100     0.68878801     7.10533501    -0.62690332     0.90500988     1.12978120
O       2.92860401     2.06742498     2.30052501    -1.39652708    -1.29281106     3.28518689
O       2.54778901     4.20841803     6.76881998     0.19633182    -1.08922486     0.40199907
O       0.17961001     0.86129598     2.41384002     0.99787996    -0.68156396    -0.86981146
O       2.42406700     1.41108802     7.08790597    -0.44156553     0.99929175    -1.24038316
O       2.76850202     4.68302001     1.82006001     1.14005713    -0.05521420     1.13030622
