# total energy = -19960.83120355 eV

CRYSTAL
PRIMVEC
        7.60600008     0.00000000     0.00000000
        0.00000000     7.60600008     0.00000000
       -1.89786986    -1.89786986     4.85670466
PRIMCOORD
24 1
Ti      3.80318499     6.71511701     1.11996798     0.07300213    -0.07586146     0.51089484
Ti      3.79684402     2.92093502     1.13672200     0.31323839    -1.18066309     1.14396830
Ti     -0.05332599     6.71043601     1.27632801    -0.42636671     0.16668571    -0.37211538
Ti     -0.04239699     2.91768698     1.33201402     0.13274739    -0.65851324    -1.09687698
Ti      5.65046122     2.94123923     3.75503483     0.51523281    -3.01639826    -1.37153081
Ti      5.65098320    -0.99605579     3.67127280    -0.43513649     2.61131798    -0.60129692
Ti      2.02096120     2.79876122     3.65304581    -0.34725486     0.27510248    -0.97719080
Ti      1.90619324    -0.97257275     3.55531784     0.79022242    -0.65395133     0.30862017
O       3.81750299     4.76213000     0.75741097    -0.30984273    -1.03547696     0.53709028
O       3.88922598     0.89224698     0.64372798    -0.72466158     0.77179763     0.52061182
O      -0.16663400     4.76232098     0.80609502     0.45455501     0.54138222     0.42370279
O      -0.15753998     1.10529199     0.68264902     0.16394414    -2.53056732     1.60057582
O       5.67661623     4.74816025     4.14841880    -0.07727942     0.50168489    -0.45334659
O       5.73566924     0.91904520     4.01596383     0.51595066     0.58609912     0.07034309
O       2.14779621     4.69252721     4.02182780    -0.58560136     0.01080944    -0.63167117
O       2.04182825     0.88592924     4.09407282    -0.77607518     0.13575018    -0.17356341
O       3.86025824     2.48503722     3.21897283    -0.11402924     1.47511879    -0.38446208
O       3.76481223    -0.97578676     3.14481779    -0.21862484    -0.07886939    -0.06146816
O       0.06839224     2.74922123     3.22205179    -0.32907510     0.52825545     0.94159361
O      -0.01263178    -1.11859080     3.16107084    -0.13584146     0.29169253     0.53815909
O       5.59107600     6.76044601     1.61563000     1.68120821    -0.39416440     0.08240646
O       5.75161700     2.97997903     1.71729199    -1.62980310     0.03742191    -0.12110929
O       1.83013301     6.54750202     1.51391499     0.26810548     0.75786482     0.24020489
O       1.91474602     2.65194501     1.68669898     1.20138542     0.93348229    -0.67353955
