# total energy = -4978.76245534 eV

CRYSTAL
PRIMVEC
        3.69368178     0.00000000     0.00000000
        0.00000000     5.78744559     0.00000000
        0.00000000    -0.00007511     5.78744559
PRIMCOORD
6 1
Ti      1.84684082     2.89368518     2.89372273     0.00000000     0.00000000     0.00000000
Ti      0.00000000     0.00000000     0.00000000     0.00000000     0.00000000     0.00000000
O       1.84684082     1.12787325     1.12788789    -0.00000000    -0.96683902    -0.96683902
O       1.84684082     4.65949710     4.65955757     0.00000000     0.96683902     0.96683902
O       0.00000000     1.76578148     4.02161179     0.00000000     0.96744580    -0.96744580
O       0.00000000     4.02158888     1.76583367     0.00000000    -0.96744580     0.96744580
