# total energy = -19074.64145935 eV

CRYSTAL
PRIMVEC
        7.60600008     0.00000000     0.00000000
        0.00000000     7.60600008     0.00000000
       -1.89786986    -1.89786986     4.85670466
PRIMCOORD
22 1
Ti      3.63699899     6.68436101     1.40481600    -0.85503919    -0.59051397    -0.70561973
Ti      3.87574599     2.94162902     1.23707501     0.67127466     0.08648963     1.79154920
Ti      0.00900702     6.56678799     0.92656000     0.63934900    -0.04358510     2.18743470
Ti      0.18271898     2.78417900     1.04808698    -0.92317164     0.05801105    -0.33771838
Ti      5.84962825     2.85010120     3.41297783    -0.90990243    -0.39921199     0.05928683
Ti      5.94837521    -0.94115576     3.47928083     0.07953351     0.61637028     1.95464462
Ti      1.88181225     2.90789625     3.64420580     0.58667017    -1.24482885     0.45179287
Ti      1.36135721    -1.01960375     4.11330582     0.48990383     2.01837741    -2.83535294
O       3.46997901     4.69015898     0.95486500     0.26959209     2.75763052    -0.17595042
O       4.04364599     1.06050899     0.92902998    -0.50459204    -2.15947420     0.73810460
O       0.24890101     4.68503898     0.74463198     0.05233868     0.56569818    -0.38076792
O       7.39466399     0.94740201     0.49036601     0.35966198    -0.01655251     1.39016746
O       5.78348125     4.71246322     3.98102580     0.32189864     0.80903930    -1.56614025
O       5.68442123     1.01536022     3.82900482     0.87200410    -1.38751099     0.14238492
O       1.68489624     4.82068420     4.32424180     0.33221930    -1.28730992    -0.58378667
O       1.92712622     1.07383823     4.25220681    -0.42001377    -0.77608032    -2.41466143
O       3.97468022     3.02321625     3.21866882    -1.69424114     0.02220714     0.36618179
O       0.09612420     2.96537622     3.04054881     0.59217721     0.03309911     0.91879922
O       5.62536102     6.49193401     1.71792399     0.35095443    -0.06593031    -1.29895599
O       5.87677398     2.96830098     1.47503100    -0.78278447    -0.01333889     0.47264401
O       1.76869997     6.65770001     2.01256401    -0.06938253     0.36080741     0.42598104
O       1.94597298     2.42565199     1.75008997     0.54154909     0.65660754    -0.60001780
