# total energy = -4982.62012503 eV

CRYSTAL
PRIMVEC
        3.80695146     0.00000000     0.00000000
       -0.00000709     3.11477829     0.00000000
       -1.90350113    -1.55742474     4.46144757
PRIMCOORD
6 1
Ti     -0.00016523     2.33619980     1.11536201    -0.00320000    -0.01057932     9.42905332
Ti      1.90360847    -0.77884645     3.34608570     0.00320000     0.01057932    -9.42905332
O       0.00003927     0.77868802     0.72673341     0.00319408     0.00659051    -1.49071948
O       1.90340387     0.77866525     3.73471435    -0.00319408    -0.00659051     1.49071948
O      -0.00001842    -0.77868093     2.95745709     0.00086620    -0.00015607     2.47578249
O       1.90346146     2.33603419     1.50399062    -0.00086620     0.00015607    -2.47578249
