# total energy = -4990.21273367 eV

CRYSTAL
PRIMVEC
        3.04098299     0.00000000     0.00000000
        0.00000000     4.76476444     0.00000000
        0.00000000    -0.00006183     4.76476444
PRIMCOORD
6 1
Ti      1.52049144     2.38235125     2.38238217     0.00000000     0.00000000     0.00000000
Ti      0.00000000     0.00000000     0.00000000     0.00000000     0.00000000     0.00000000
O       1.52049144     0.92857035     0.92858240     0.00000000    -0.24964084    -0.24964084
O       1.52049144     3.83613215     3.83618193     0.00000000     0.24964084     0.24964084
O       0.00000000     1.45375583     3.31096553     0.00000000     0.24949994    -0.24949994
O       0.00000000     3.31094666     1.45379880     0.00000000    -0.24949994     0.24949994
