# total energy = -19075.48974782 eV

CRYSTAL
PRIMVEC
        7.60600008     0.00000000     0.00000000
        0.00000000     7.60600008     0.00000000
       -1.89786986    -1.89786986     4.85670466
PRIMCOORD
22 1
Ti      3.80680102     6.50828601     1.12107502    -0.88926675     1.08271791     0.62366295
Ti      3.77419602     2.85341300     1.22968299    -0.20274467    -0.22544546    -0.75791187
Ti      0.00031200     6.72313902     1.19227201     0.84925677     0.35737267    -0.12004511
Ti     -0.05762899     2.96031602     1.20791401     0.49672009    -1.22786394     0.85586142
Ti      5.71552621     2.88540420     3.68229281     0.65956174     0.08465129    -0.72982179
Ti      5.79214224    -0.93655578     3.66092283    -0.32687475    -0.58278548    -0.05270224
Ti      1.94758025     2.85385921     3.63259179    -0.70814352    -0.82308730    -0.90243029
Ti      1.89379425    -1.00825279     3.78611082    -0.16791752     0.89798768    -3.74353993
O       3.59029301     4.75114100     0.67354601     0.77600396    -0.84338154     0.99371914
O       3.70005099     0.87596001     0.66185998     0.37686884     0.33233423     3.83772488
O       0.05137703     4.80472601     0.82005900    -0.22788956    -0.61136074    -0.74293159
O      -0.06251499     0.98593400     0.90433302     0.17707297    -0.81532128    -0.82518687
O       5.75889324     4.73179422     3.87416883     0.27909001     0.57602322     1.42716487
O       5.74810723     0.87815721     3.84469180    -0.26226162     1.23159075     1.26717792
O       1.84981523     4.69913721     4.03896679     0.26774655     0.57438415    -0.78737235
O       1.79358824     0.92606220     4.17293780     0.85411256    -0.03418154    -1.58060785
O       3.85655225     3.07547425     3.27637480    -0.38648323    -1.11235091    -0.33074375
O       0.07059225     2.79424421     3.26714881    -1.01296488     0.41754602    -1.48954140
O       5.56524400     6.36404701     1.77952498     1.25681148     1.05826234    -0.04140866
O       5.69628998     2.84253799     1.50086400     0.36753059     0.29718621     0.69130305
O       1.96700200     6.66250499     1.62800598    -1.31538098     0.03705630     1.40537245
O       1.95323302     2.95021302     1.54005899    -0.86084808    -0.67133431     1.00225701
