# total energy = -4990.49658091 eV

CRYSTAL
PRIMVEC
        3.87921118     0.00000000     0.00000000
       -0.00000864     3.87921118     0.00000000
       -1.93963601    -1.93964033     4.95073621
PRIMCOORD
6 1
Ti     -0.00017083     2.90955531     1.23768392    -0.00015170     0.00015170     0.00000000
Ti      1.93973725    -0.96998457     3.71305197     0.00015170    -0.00015170     0.00000000
O       0.00003875     0.96979620     0.80643442    -0.00020543    -0.00049442    -0.28812410
O       1.93952756     0.96977443     4.14430152     0.00020543     0.00049442     0.28812410
O      -0.00002191    -0.96977936     3.28180247    -0.00049442    -0.00020543    -0.28812410
O       1.93958817     2.90934994     1.66893347     0.00049442     0.00020543     0.28812410
