# total energy = -4988.90104179 eV

CRYSTAL
PRIMVEC
        4.07445188     0.00000000     0.00000000
        0.40641966     4.05413138     0.00000000
       -2.24047191    -2.02709839     5.20643561
PRIMCOORD
6 1
Ti      0.30465862     3.04075275     1.30160865    -0.00013087     0.00013087    -0.00000000
Ti      1.93574066    -1.01372008     3.90482634     0.00013087    -0.00013087     0.00000000
O       0.10164787     1.01352643     0.84808573    -0.00061295    -0.00150872    -0.87245764
O       2.13875129     1.01350613     4.35834938     0.00061295     0.00150872     0.87245764
O      -0.10162532    -1.01350603     3.45130342    -0.00150872    -0.00061295    -0.87245764
O       2.34202442     3.04053854     1.75513168     0.00150872     0.00061295     0.87245764
