# total energy = -4985.91439650 eV

CRYSTAL
PRIMVEC
        3.65387445     0.00000000     0.00000000
       -0.00000738     3.30588678     0.00000000
       -1.82696301    -1.65297657     4.45223232
PRIMCOORD
6 1
Ti     -0.00015972     2.47953930     1.11305786     0.00075513    -0.00514941     4.34541664
Ti      1.82706350    -0.82662900     3.33917393    -0.00075513     0.00514941    -4.34541664
O       0.00003712     0.82646547     0.72523219     0.00154523     0.00589451     0.85333403
O       1.82686651     0.82644474     3.72699970    -0.00154523    -0.00589451    -0.85333403
O      -0.00001873    -0.82645391     2.95134825     0.00140768     0.00007379     2.38798571
O       1.82692237     2.47936407     1.50088363    -0.00140768    -0.00007379    -2.38798571
