# total energy = -4987.10942769 eV

CRYSTAL
PRIMVEC
        3.65066274     0.00000000     0.00000000
        0.00000000     4.22785687     0.00000000
        0.00000000    -0.00006670     5.08843883
PRIMCOORD
6 1
Ti      1.82533143     2.11389491     2.54421942     0.00000000     0.00000000     0.00000000
Ti      0.00000000     0.00000000     0.00000000     0.00000000     0.00000000     0.00000000
O       1.82533143     0.82393397     0.99166177     0.00000000     0.34631050     0.46172068
O       1.82533143     3.40385580     4.09677701     0.00000000    -0.34631050    -0.46172068
O       0.00000000     1.28993399     3.53588231     0.00000000    -0.34497584     0.45966739
O       0.00000000     2.93785583     1.55255652     0.00000000     0.34497584    -0.45966739
