# total energy = -19961.64997867 eV

CRYSTAL
PRIMVEC
        7.60600008     0.00000000     0.00000000
        0.00000000     7.60600008     0.00000000
       -1.89786986    -1.89786986     4.85670466
PRIMCOORD
24 1
Ti      3.81349802     6.57920497     1.16673900    -0.30253745     0.00941590     1.22460815
Ti      3.76665699     2.78910098     1.22825897     0.26285014    -0.16655098    -0.45209652
Ti      0.05532802     6.76209302     1.16298702    -0.13070131    -0.43711572     0.56650782
Ti     -0.00444498     2.87440203     1.19803300    -0.30533378     0.40492961     0.09240960
Ti      5.70465924     2.93461324     3.66579883     0.41666336    -0.22574500     0.35448327
Ti      5.69311021    -0.89441078     3.57411781     0.81033488     0.30740095     0.61547836
Ti      1.89998022     2.85530423     3.65089783    -0.54374430    -1.86456110    -0.31946611
Ti      1.88588723    -1.04022780     3.64786480    -0.76954560     1.52695765    -0.41752828
O       3.81253100     4.63150497     0.80875498    -0.01256859     1.56946186    -0.22386732
O       3.77212398     0.91654002     0.77572199     0.31035721    -1.17244199     0.29576799
O      -0.01767701     4.86262801     0.83138498    -0.20946554    -1.02949966    -0.45013631
O       0.07975802     1.00122997     0.72977602    -0.68522856     0.23061210     0.63917237
O       5.91276724     4.87436923     4.07058783    -0.72765949    -1.18824142    -0.29540315
O       5.73447023     1.02103824     4.11677183    -0.64176121     0.12049145    -0.52503026
O       1.68953320     4.68748224     4.09234580     0.44639895     0.18785875     0.07875523
O       1.94959922     0.89618623     4.06776880    -0.05934468    -0.04097054     0.04723890
O       3.73091922     2.87465624     3.30378682     0.30624318     0.36925246    -0.43306675
O       3.78025722    -1.12131077     3.21046879    -0.12366008     0.25735235    -0.39081708
O      -0.06332177     2.82960225     3.19677982     1.04022296     0.01865670     0.30421484
O      -0.03908678    -0.82352178     3.28857684     1.31586178    -0.03406893    -0.62434070
O       5.76891501     6.66348000     1.65143800    -1.67210368     0.18276771    -0.88665888
O       5.67230799     2.85608000     1.72814499    -0.44666866    -0.16198393    -0.71697064
O       1.85927998     6.49612399     1.61473998     1.30418768     0.46409252     0.58787910
O       1.86584702     2.70628702     1.57691799     0.41720278     0.67192952     0.92886638
