# total energy = -4989.35210102 eV

CRYSTAL
PRIMVEC
        2.85169811     0.00000000     0.00000000
        0.44570379     4.44589824     0.00000000
       -0.00000297    -0.00005798     4.47379300
PRIMCOORD
6 1
Ti      1.64869952     2.22292013     2.23689650     0.00000000     0.00000000     0.00000000
Ti      0.00000000     0.00000000     0.00000000     0.00000000     0.00000000     0.00000000
O       1.51270958     0.86642882     0.87187635    -1.10411644     0.67340045     0.68434101
O       1.78468950     3.57941143     3.60191659     1.10411644    -0.67340045    -0.68434101
O       0.13598872     1.35646780     3.10877376     1.10400717    -0.67292274     0.68382782
O       0.30971230     3.08937235     1.36501919    -1.10400717     0.67292274    -0.68382782
