# total energy = -19517.79690939 eV

CRYSTAL
PRIMVEC
        7.60600008     0.00000000     0.00000000
        0.00000000     7.60600008     0.00000000
       -1.89786986    -1.89786986     4.85670466
PRIMCOORD
23 1
Ti      3.76531902     6.74341598     1.27611099     1.33695923    -0.00016584    -0.17981582
Ti      3.82352799     2.97338802     1.14142501     0.88449247    -1.43460565     2.06700881
Ti      0.06572403     6.59478199     1.20371700    -1.47845943    -0.99565595     0.61166593
Ti      0.02803999     2.77875800     0.98687101    -1.26576613     1.16993233    -0.30323473
Ti      5.68688121     2.82267622     3.61562483    -1.75997013    -1.62215947     0.16363149
Ti      5.65881122    -1.10443578     3.64222583     0.38939603     0.92635647    -1.33746265
Ti      2.06003221     2.98265523     3.64869481     1.32220366    -0.23810532    -0.41396859
Ti      1.82606221    -0.82186476     3.72613482     0.16701224    -0.51129311    -0.01922466
O       3.82610202     4.68619603     1.08309502    -0.13120499     3.25561302    -0.78354681
O       3.52507102     1.14343498     0.82555699     0.39545587    -2.70127217    -0.91056141
O      -0.27737598     4.70834701     0.77012700     1.75816419     0.39253612    -0.51322272
O      -0.06385502     0.91712799     0.82005101     0.40328077    -1.85133380    -0.85160728
O       5.59849221     4.64677221     3.88781879     0.65049937     1.15186313     1.12603073
O       5.92116523     0.91401722     3.96943782     0.42281164    -0.21590693     0.24837277
O       1.99559620     4.82756821     4.09957981    -0.23226249    -0.20413410     0.57982846
O       1.78801822     1.16109522     4.07200984    -0.72347862    -1.46354471    -0.12827393
O       3.86373424     2.47541820     3.35168583    -0.63224453     1.56648478    -0.98953467
O       3.81676722    -0.80370277     3.22606380    -0.44185273     0.26589639     0.44910067
O      -0.01551177    -1.03486676     3.21972680     0.88994707     0.16228886    -0.37718072
O       5.73708600     6.46866498     1.59137098    -0.67950322     1.18164680     0.60482602
O       5.86197602     2.77031101     1.68905398    -0.65279048    -0.04167914    -0.12770880
O       1.98447300     6.42558302     1.60217699    -1.84927126     0.67164310     0.13803975
O       1.65153399     2.89071598     1.80308602     1.22658121     0.53559544     0.94683814
