# total energy = -19519.16163369 eV

CRYSTAL
PRIMVEC
        7.60600008     0.00000000     0.00000000
        0.00000000     7.60600008     0.00000000
       -1.89786986    -1.89786986     4.85670466
PRIMCOORD
23 1
Ti      3.77106901     6.57644098     1.25657498     1.12624516     0.61686058    -0.10258808
Ti      3.73629402     2.80473002     1.17381500     0.43702239    -0.52613223     0.23329710
Ti      0.06006702     6.72245601     1.23263098    -1.20727222    -0.29121842    -0.13634899
Ti     -0.02950899     2.89913201     1.03875298    -0.33322563     0.20582331     0.42204340
Ti      5.61481722     2.96386621     3.61579481     0.55705336    -0.38750524     0.89995303
Ti      5.73160722    -1.00107577     3.59626679    -0.18262244     1.10320498    -0.75895625
Ti      2.04530923     2.83636820     3.67181584    -0.72888179    -0.11485251     0.70411872
Ti      1.91277324    -1.01954676     3.63826579     0.21856005    -0.00802159     0.71633352
O       3.74090802     4.69023502     0.88863402    -0.24303002     0.09336965    -0.56260463
O       3.80159000     0.92082901     0.90530099    -0.13281578     0.36026645    -0.74996664
O      -0.07423701     4.85110099     0.70981302     0.70356182    -0.52658243     1.00290313
O      -0.07557799     0.99496198     0.68624500     0.18534730    -0.12173201     1.24984893
O       5.76370224     4.83741425     4.03625883     0.37248177    -1.47037768    -0.06871173
O       5.72093223     0.99797220     4.02733479     0.49450508     0.28081368    -0.66059121
O       1.89177522     4.70926323     4.07558480    -0.28766156    -0.16235571     0.19464749
O       1.87940121     0.90312120     4.02188680    -0.31610260     0.30036307     0.94279148
O       3.82245821     2.87401223     3.44944783    -0.68069596    -0.07812300    -1.00954609
O       3.81609220    -1.04752277     3.21226683    -0.34128219     0.08974362     0.36249277
O       0.04961322    -1.11253378     3.18376280    -0.35856669     0.65733388     0.17195133
O       5.69143298     6.64598201     1.63632300     0.49752022     0.15556157    -0.24756210
O       5.67378101     2.89728402     1.75714798     1.10488957    -0.01406702    -1.52098909
O       1.91745101     6.73707897     1.68108701    -0.36721717    -0.15179079    -0.45561765
O       1.80927501     2.85697902     1.79027300    -0.51781266    -0.01058215    -0.62689843
