# total energy = -19518.06952867 eV

CRYSTAL
PRIMVEC
        5.93400000     0.00000000     0.00000000
        0.00000000     9.29699974     0.00000000
        0.00000000     0.00000000     4.64899994
PRIMCOORD
23 1
Ti      4.52220701     7.03095100     2.33407898     0.22912317    -0.08138496    -0.73278087
Ti      4.42188702     2.30086300     2.35913198     0.81717968    -0.35486199     0.24157297
Ti      1.48162999     6.97870998     2.28970699     0.09378334     0.80664098    -0.08980224
Ti      1.44948798     2.33650298     2.22539502    -0.93715151    -0.54145087     0.85352583
Ti      2.93087101     4.46304198     0.03476800     0.34951589    -0.02540791     0.29296832
Ti      2.98285600     0.06604899     0.02663698    -1.07076922    -0.46824691    -0.15057774
Ti      5.92029299     4.69291102     0.06303099    -0.32566916     0.03671022    -0.14404174
Ti      5.89304301     9.27864999     4.59393101     1.15957747     0.46780571    -0.41804636
O       4.39638999     5.59602698     0.91997798    -0.04103534    -0.27792376    -0.16634504
O       4.47850401     0.99069199     0.89172701     0.02193846    -0.74895132    -0.42820711
O       1.48850501     5.50970902     1.04323898     0.75060145    -0.10750866    -0.91664773
O       1.42822998     1.00008298     0.88692901     0.37214367    -0.91861642    -0.48495420
O       4.41338600     8.37747601     3.64717200     0.13081366     0.31550764     1.21094144
O       4.51668902     3.71928600     3.74182001    -0.85253802     0.74700499     0.12390999
O       1.54313701     8.48548601     3.64709601    -0.27088973    -0.39594901     0.84950231
O       1.48107298     3.59163300     3.83805698     0.22611035     1.34482578    -0.37124481
O       3.03359601     1.44286199     3.26644199    -0.29499769     0.02542693    -0.26566010
O       0.08898798     6.11725599     3.27327398    -0.49378132    -0.58139297     0.57025547
O       0.00389998     1.34946798     3.15004400    -0.37934096     0.21902593     0.31688061
O       2.96644299     7.89410799     1.40306601     0.31008904    -0.37161788     0.30445935
O       2.91708700     3.19396502     1.37679702     0.91121524     0.24271531     0.44758989
O       0.05117599     7.85129602     1.49324702    -0.49901737     0.98939994    -1.56863396
O       0.01961401     3.31256597     1.41773798    -0.20690112    -0.32175131     0.52533648
