# total energy = -19960.19772116 eV

CRYSTAL
PRIMVEC
        5.93400000     0.00000000     0.00000000
        0.00000000     9.29699974     0.00000000
        0.00000000     0.00000000     4.64899994
PRIMCOORD
24 1
Ti      4.42366299     6.75323301     2.25324700     0.39463517     1.10570101     1.16744993
Ti      4.45838400     2.31368502     2.33819598    -0.02833434    -0.55124601     0.47356061
Ti      1.50860301     7.04526101     2.34234399    -0.44473313     0.31026413    -0.15872866
Ti      1.45324800     2.49713098     2.32702399    -0.05160463    -1.99421571    -0.30549628
Ti      2.90425403     4.67287801     0.03073599     0.83236796    -1.10648957    -0.08242240
Ti      3.01498701     9.21600599     4.53615401     0.51285402     1.02364859     0.15493628
Ti      0.01599502     4.66700599     0.06613001    -0.96502022    -0.56764451    -0.90005870
Ti      0.00501401     9.18429700     0.16691700    -0.08253938     1.35248947     0.11866931
O       4.41972797     5.63327497     0.78367103    -0.10544972    -0.34188023     0.12544083
O       4.52478400     0.98026699     0.72386198    -0.79355380    -0.05229394     0.80019625
O       1.53966597     5.65384298     0.89608600    -0.12113706    -0.51709557    -0.37225808
O       1.45664701     0.91008099     0.97859701     0.14967760    -0.23825779    -0.91739515
O       4.48545798     8.46084100     3.63868098    -0.49463209    -0.58143180     0.62465617
O       4.52356298     3.71716299     3.76870602    -0.50062920     0.61946563     0.47305076
O       1.40381099     8.41929498     3.78471099     0.76997035    -0.58623179    -1.07858563
O       1.46922200     3.62413400     3.91427099     0.31703822     0.73465058    -0.42757719
O       2.85721498     6.22085201     3.31883800     0.64587447    -1.14105164    -0.27441214
O       3.01590201     1.46315398     3.18417498    -0.58636189    -0.15929764     0.00926292
O       5.92444502     5.89433700     3.09003599     0.29255411     0.81614044     0.50798744
O       0.00829602     1.42940602     3.00566201     0.60544205     0.34981543     0.69715462
O       3.01915402     7.81123000     1.33719498    -0.71580053     0.42920547     0.28183312
O       3.05980600     3.29284603     1.39770000    -1.00650447     0.71193230    -0.07556321
O       5.81830900     7.76647102     1.44860600     0.75185512     0.94600613    -0.52317932
O       5.92031701     3.50632999     1.55443700     0.62403139    -0.56218323    -0.31852175
