# total energy = -19961.04955173 eV

CRYSTAL
PRIMVEC
        7.60600008     0.00000000     0.00000000
        0.00000000     7.60600008     0.00000000
       -1.89786986    -1.89786986     4.85670466
PRIMCOORD
24 1
Ti      3.87571402     6.55800301     1.21662501    -0.59135189     0.44750761    -0.10792415
Ti      3.77959802     2.80339401     1.34506199     0.30179363    -0.73157425    -2.18184101
Ti      0.09043099     6.78345099     1.16781301     0.39675736     1.15196469     0.33654622
Ti      0.01187299     2.97429201     1.22963002    -0.97347607    -0.67447929    -0.56745990
Ti      5.65143020     2.97680021     3.68170383     0.79769405    -1.25780907    -0.44774107
Ti      5.75503025    -0.90733679     3.54492982    -0.14845247     1.30178241     0.87279394
Ti      1.82700520     2.77263325     3.62625579    -0.84888011    -1.61038869     0.75071535
Ti      1.85829323    -1.08166979     3.59206279     0.37872646     1.03401991     0.85140750
O       3.93838798     4.61641601     0.87311701    -0.37061797     0.70046286    -0.65690502
O       3.84682798     0.91074098     0.70908302     0.06944244    -0.40343606     0.70685771
O      -0.03057898     4.91051500     0.94473999    -0.16808773    -1.78085290    -1.65998581
O       0.08938201     1.07140798     0.78113600    -0.56053412    -1.32903508    -0.39872220
O       5.85889324     4.88350421     3.99814781    -0.60770205    -1.42336247     0.35307867
O       5.57813725     0.98476722     4.07865683    -0.01321368     1.30032999     0.00714844
O       1.70512721     4.66499322     4.10431182     0.43013852    -0.14743354    -0.23109855
O       1.83821624     0.87455822     3.99638781     0.24813186     0.80773164     0.28632047
O       3.68057822     2.87261521     3.23161180     1.22720805     0.39736003     0.35227880
O       3.73302222    -1.10207280     3.16745383     1.24588455     0.24486527    -0.35568834
O      -0.04624178     2.82481923     3.22147981    -0.46967902     0.22240282     0.58450735
O       0.01403823    -0.82523377     3.25343883    -0.19085203    -0.05747626    -0.88785573
O       5.80806799     6.67227101     1.56239102    -1.56670178     0.23462893     0.48165265
O       5.69064800     2.81440200     1.73633697    -0.67723422     0.06324299     0.22692462
O       1.91565202     6.46954299     1.48541202     0.24103895     0.55940541     0.95114706
O       1.78424800     2.67082801     1.59299302     1.84996777     0.95014330     0.73384274
