# total energy = -4988.49582396 eV

CRYSTAL
PRIMVEC
        3.65340974     0.00000000     0.00000000
        1.07189741     3.49262633     0.00000000
       -2.36268655    -1.74633754     4.71711522
PRIMCOORD
6 1
Ti      0.80381125     2.61960364     1.17927853     0.00057336    -0.00057336     0.00000000
Ti      1.55880912    -0.87331502     3.53783599    -0.00057336     0.00057336     0.00000000
O       0.26801256     0.87315174     0.76837939     0.00017175     0.00058673    -0.43990100
O       2.09460765     0.87313681     3.94873512    -0.00017175    -0.00058673     0.43990100
O      -0.26798443    -0.87313094     3.12693685     0.00058673     0.00017175    -0.43990100
O       2.63060462     2.61941939     1.59017771    -0.00058673    -0.00017175     0.43990100
