# total energy = -19517.84693958 eV

CRYSTAL
PRIMVEC
        5.93400000     0.00000000     0.00000000
        0.00000000     9.29699974     0.00000000
        0.00000000     0.00000000     4.64899994
PRIMCOORD
23 1
Ti      4.52774602     7.05866798     2.25545499     0.96792300     0.35075979    -0.32315205
Ti      4.42123100     2.27591002     2.41935902     1.09190935     0.18066352    -0.51259177
Ti      1.45214900     7.03270898     2.15371500    -0.37142041     0.73374709     0.83566000
Ti      1.45878001     2.27381500     2.28190099    -0.90723363     0.30027822     0.38033778
Ti      2.94755602     4.40553798     0.20581000     0.40361655     0.83330924    -1.00456586
Ti      2.94826300     9.29086499     4.58298498    -0.14866484    -0.77819814    -0.18548999
Ti      0.01092502     4.65303101     4.64312200    -0.17479548    -0.33337630    -0.08780192
Ti      5.87698899     0.16212298     4.60925799     0.25862531    -1.16832462     0.57557971
O       4.39719799     5.57138299     1.01147802    -0.14401705    -0.15991625    -0.86956824
O       4.43001502     0.95284201     0.95696499     0.24877129    -0.43396072    -0.70564415
O       1.53124301     5.50581798     0.94045799    -0.22603450     0.32342536    -0.49419166
O       1.56214701     0.95177497     0.94591698    -0.26600052    -0.35925369    -0.70004506
O       4.56326201     8.44403301     3.69017702    -0.62291553    -0.30884797     0.25678028
O       4.36270299     3.52277598     3.82920501     0.26301829     2.12746550     0.70524152
O       1.44985697     8.32679199     3.54732599     0.94127865     1.08890039     1.99220922
O       1.49837703     3.71138300     3.73735698     0.10506843     0.63750527     0.46422056
O       3.01727401     1.31380598     3.18569298    -1.06411623    -0.02010629     0.40585624
O       0.04269402     6.12140802     3.17495100    -0.26174483    -0.97099829     0.66385368
O       0.01834298     1.51328998     3.37494301     0.37208325     0.09070650    -0.96413859
O       3.04455902     7.97319999     1.42155499    -0.13204882    -1.06035445    -0.01319671
O       2.95585500     3.27305898     1.52349897    -0.01225902    -1.00361506     0.84467686
O       0.08511599     7.93991199     1.41627602    -0.97163490     0.22104451    -1.14129101
O       5.87578601     3.29553901     1.45945397     0.65059167    -0.29085307    -0.12273885
