# total energy = -19961.89031870 eV

CRYSTAL
PRIMVEC
        7.60600008     0.00000000     0.00000000
        0.00000000     7.60600008     0.00000000
       -1.89786986    -1.89786986     4.85670466
PRIMCOORD
24 1
Ti      3.76581597     6.67794601     1.09747800     0.90746554     0.26238992     1.35450727
Ti      3.86951302     2.89511000     1.15984498    -1.06417022    -0.47627030     0.41752365
Ti      0.00700001     6.66449702     1.23535402    -1.02660691    -0.13727176    -0.25566391
Ti      0.00629700     2.85606799     1.25268902     0.23865297     0.08703470     0.40223947
Ti      5.73133623     2.76267223     3.68625581    -0.83783670     1.02407720     0.31287869
Ti      5.70779123    -0.98947076     3.67544181    -0.76390949    -0.41051020    -0.67074399
Ti      1.92126320     2.86575321     3.62995284     0.52213931     0.09990642    -0.54241118
Ti      1.87125722    -0.91779079     3.60614483     0.72610448    -0.24065072    -0.20467531
O       3.79742400     4.77177198     0.79426399    -0.04072809     0.00720115    -0.32399923
O       3.78445899     0.94089303     0.67880799     0.00236516     0.57108670     0.50885930
O      -0.09906399     4.77418503     0.87717802     0.23573297    -0.68280606    -0.56741568
O      -0.17232699     0.96728802     0.81877802     0.47786927    -0.14233787     0.16556316
O       5.74235523     4.71349120     4.12529079    -0.29307039     0.23323411    -0.14820076
O       5.82419620     0.94253321     4.19827481     0.08877971    -0.08743091    -1.01183077
O       1.99126325     4.78391125     3.96065581    -0.20713997    -0.85183919     0.33618806
O       1.77489823     0.97893621     4.02938683     0.20205896    -0.26502864     0.20180211
O       3.82313921     2.70941123     3.27049781     0.07338934     0.18618188    -0.28748184
O       3.78693824    -0.95360677     3.10298284    -0.03472842     0.20524790     0.89705643
O      -0.02799480     2.85364521     3.24483880     0.03778366     0.01911102    -0.15731275
O      -0.05425776    -1.16793176     3.22374082     0.78582275     0.70933934     0.14253970
O       5.68743097     6.77929398     1.69724300    -0.09629865    -0.28175342    -0.37722725
O       5.63217100     2.91401502     1.59451901     1.04894954    -0.27362847     0.55556726
O       1.90040103     6.67133098     1.62497400    -0.52671716     0.32367398    -0.54856795
O       1.92092998     2.82872800     1.67753300    -0.45590741     0.12104321    -0.19919449
