# total energy = -19517.77849979 eV

CRYSTAL
PRIMVEC
        5.17600016     0.00000000     0.00000000
        0.00000000     5.50899976     0.00000000
        0.00000000     0.00000000     9.26300011
PRIMCOORD
23 1
Ti      1.84680400     3.15350302     3.38611198    -0.16693202    -0.40287813     3.25595318
Ti      3.35031298     2.27604602     5.87403602     0.10817946     0.45273184    -2.58138108
Ti      4.37652901     2.06440898     1.44798998     1.34007078    -0.14182596    -1.22145726
Ti      0.79083201     3.49379701     7.72541099     0.77444356    -0.69504452     1.43259119
Ti      2.07231299     0.23103699     1.40246598    -0.66548582     0.39867849    -1.62308892
Ti      3.18015498     5.26711400     7.89641700    -0.39106905    -0.76356136     1.22124797
Ti      0.73093698     0.56168900     5.92552999    -0.41496335    -0.13939087    -2.90904773
Ti      4.53252697     4.93167802     3.35265401     0.62525395    -0.17130213     3.38323543
O       1.59113301     1.82779902     4.75736698     0.58251038    -0.12252622     0.10778094
O       3.53821298     3.47540398     4.50306000    -0.04116466     0.31760026    -0.29700803
O       0.13038202     2.71973299     0.01128698    -0.25663707     0.15500955    -0.15439017
O       3.48276002     0.82436798     0.14891498    -0.12775225     0.83216407     1.25783016
O       1.84730603     4.64304400     9.13429700    -0.52773455    -0.29552425    -0.05577110
O       4.24550102     0.69426701     4.84023000     0.05519672    -0.10485760    -0.30907860
O       0.90712099     4.49636898     4.47599402     0.15287117     1.64297538     0.97126209
O       0.20052399     3.35696903     2.55382698    -0.61736015    -0.86859405    -1.37632026
O       5.05862902     2.18313599     6.69582802    -0.08838325    -0.13051902     0.38496011
O       2.76845100     1.79236198     2.42900200    -0.39518333    -0.31629440    -1.25240513
O       2.56277499     3.69324900     6.93655001    -0.38473179    -0.75574700     0.25783675
O       0.16820698     0.54471199     1.94730402     1.15029887     0.06274754     0.29177764
O       4.90764199     4.88067602     7.23370902     0.21977927     0.64280585    -0.00071502
O       2.36345398     1.04417398     7.00526500    -1.25197318     0.43573761    -0.34197356
O       2.87743998     4.48815800     2.39626101     0.32076658    -0.03238486    -0.44183884
