# total energy = -19960.70647603 eV

CRYSTAL
PRIMVEC
        5.93400000     0.00000000     0.00000000
        0.00000000     9.29699974     0.00000000
        0.00000000     0.00000000     4.64899994
PRIMCOORD
24 1
Ti      4.49898200     6.93112399     2.38068701    -0.85751104     0.89775911    -0.07851509
Ti      4.42826900     2.45388497     2.37990203     0.17132218    -2.02811649     0.21092490
Ti      1.48998602     6.89172102     2.15916600     0.77458497     1.39190038     1.08000231
Ti      1.48063101     2.42600702     2.35778199     0.01977565    -1.45021251     0.42933531
Ti      2.98258200     4.65486699     0.01443902    -0.24254408     0.16273135    -0.43735972
Ti      2.96038100     9.20110298     0.01320498    -0.24457191     0.33246330    -0.38775155
Ti      5.89665702     4.65649902     4.63354802     0.31854514    -0.20803858     0.17687448
Ti      0.01182298     0.03941402     0.01604402     0.31809520     0.22895399    -0.09658095
O       4.39878298     5.57181501     0.81157100     0.30795322     0.05002212     0.05839569
O       4.40072802     0.76195698     0.89260798     0.73055635     0.90205979     0.38041928
O       1.47368900     5.54472801     0.85707902    -0.08001070    -0.12723366    -0.33123149
O       1.49277399     0.91442702     0.95116197    -0.26074210    -0.26385313    -0.44849157
O       4.45295401     8.28456799     3.71750400    -0.05114646     0.57074629     0.10323112
O       4.44798498     3.66992202     3.80750001    -0.19064197     0.70694230     0.40119509
O       1.47142100     8.33662897     3.74563400    -0.24546845     0.24931354    -0.06410123
O       1.43649297     3.76744600     3.76266499     0.57127954    -0.04943282    -0.02225136
O       2.98916501     5.95889202     2.99032598    -0.40467302    -0.62959064     1.75202568
O       3.02744998     1.45635501     3.23458599    -0.18920190     0.19438653    -0.32227993
O       5.80605098     5.99799902     3.29115102     1.22019742     0.08535346    -0.91738409
O       5.90609998     1.58597301     3.31265498     0.64272384    -1.14598790    -0.07203308
O       2.93626999     7.84769200     1.40332197    -0.26817310    -0.05064741    -0.10161209
O       3.05377898     3.39963198     1.53243202    -0.88318558    -0.20868624    -0.83488687
O       0.02518598     7.81149702     1.38458598    -0.22325334    -0.00990518     0.02908716
O       0.10025797     3.26927203     1.44751801    -0.93390960     0.39907187    -0.50701145
