# total energy = -4986.01174024 eV

CRYSTAL
PRIMVEC
        4.78911427     0.00000000     0.00000000
       -0.00000821     3.53978031     0.00000000
       -2.39458645    -1.76993646     5.43709596
PRIMCOORD
6 1
Ti     -0.00020682     2.65496558     1.35927367    -0.00186405    -0.00310795     4.52819000
Ti      2.39472620    -0.88512173     4.07782148     0.00186405     0.00310795    -4.52819000
O       0.00004995     0.88493670     0.88565835     0.00046743     0.00120199    -1.06603530
O       2.39446925     0.88490710     4.55143680    -0.00046743    -0.00120199     1.06603530
O      -0.00002144    -0.88493330     3.60420616    -0.00240450    -0.00008613    -2.14384986
O       2.39454058     2.65477698     1.83288905     0.00240450     0.00008613     2.14384986
