# total energy = -39034.89133169 eV

CRYSTAL
PRIMVEC
        5.93200024     0.00000000     0.00000000
        0.00000000     9.29399984     0.00000000
        0.00000000     0.00000000     9.29399984
PRIMCOORD
46 1
Ti      4.38236198     6.96433002     6.91369199     1.21068485     0.23776800     0.02374286
Ti      4.44967798     6.95209200     2.36588798     0.78104049    -0.64304985     0.65350010
Ti      4.44124601     2.28358298     7.08842499     0.55284086    -0.58274563    -1.37022674
Ti      4.30089799     2.63162302     2.06965699     0.58589909    -0.83074714     1.34561408
Ti      1.46194598     7.00136099     7.11742502    -1.24076779    -0.81559279    -1.27224377
Ti      1.52069799     7.10757899     2.28019900    -0.61926097    -1.70382647     0.44228673
Ti      1.49491398     2.35932502     6.91319800    -0.38480790     0.11638823    -0.45426962
Ti      1.30009902     2.08422302     2.58329501     0.91238432     1.29590204    -0.84046385
Ti      2.94782600     4.66023300     4.66583302    -0.20014014    -0.71123785     0.07842048
Ti      2.99791602     4.79269702     9.14705599    -1.01499606     0.32607951     0.55084440
Ti      2.98641102     9.24997298     4.70983199    -0.13768443     0.37156800     0.34840518
Ti      2.95907298     0.08986398     0.03334499     1.00667416     0.12854441    -0.35051220
Ti      5.93166400     4.65253702     4.68357199     0.52595046    -0.43882654    -0.45369626
Ti      0.04359801     4.52177499     9.20804299     1.02230725     0.76282756     0.42185931
Ti      5.91836398     9.18473299     4.80283600     0.01244877     0.16257528     0.42463738
Ti      0.00553800     9.20700802     0.00127601    -0.88431815     0.85792756    -0.79317688
O       4.54079098     5.61400700     5.45773497    -1.33529804     0.49414230     1.05936740
O       4.56963299     5.54256098     0.61166799    -0.72667964    -0.00610920     2.07731483
O       4.43339800     0.74219501     5.68473598     0.02644663     0.36433625    -0.84016509
O       4.52282700     0.98333299     0.85988297    -0.59893896     0.55190730     0.73239032
O       1.56058102     5.52905500     5.61253202     0.00980362    -0.15746753     0.01810469
O       1.47950402     5.59129000     0.82948698     0.75113033    -1.04140901    -0.30562432
O       1.45488897     0.85136999     5.65356300     0.18989609    -0.20408319    -1.70909261
O       1.56215902     1.02221101     0.90423401    -0.63910603    -0.72324156     0.74279866
O       4.45775201     8.57281898     8.28441802     0.23086201    -1.07004262     0.14268857
O       4.47650499     8.32734101     3.77040701    -0.48225429     0.51380353    -0.54996020
O       4.49206598     3.77904202     8.21466298    -0.54713096    -0.43100987     0.99995458
O       4.46638903     3.56145000     3.85853201     0.60702174     0.94814092    -1.62977122
O       1.48009898     8.18522898     8.49977501     0.07098767     2.10972385     0.89709114
O       1.49939998     8.25612302     3.91870301     0.19375275     0.57094092    -1.97960156
O       1.58242799     3.90169102     8.07847202     0.03587127    -0.03190123     1.74898175
O       1.50346501     3.83632202     3.78610299    -0.14311588    -1.68320236    -0.95750308
O       2.96818298     6.18714199     7.95072303     0.68252941    -0.16049140    -0.58889263
O       3.04860300     5.94612001     3.10987098    -0.15550295     0.48967141    -0.09424125
O       2.91301202     1.42010901     7.87089701     0.35405981    -0.24780687     0.73412993
O       3.00501901     1.59135701     3.11284898    -0.25322187    -0.74827640     0.20734206
O       5.89499699     6.03745902     7.81130101    -0.56308697     0.32843798    -0.24631075
O       0.09199201     6.09755498     3.30193999    -0.46042793     0.01293651    -1.02745563
O       0.12765099     1.39519000     7.89494002    -0.49780972     0.13195858     0.40688340
O       2.79442900     7.90433799     6.10943401     1.37075305     0.05766344    -0.38732192
O       3.06070099     7.84984501     1.36093001    -0.36550739     0.42201023     0.46354899
O       3.06604801     3.10324600     5.95336900    -0.16148771     0.23177064     0.55349315
O       5.86208100     7.85615201     6.01464302     0.57145283    -0.62196011     1.07291635
O       5.90895198     7.75695102     1.34257301     0.55229270     1.00134452     0.30462236
O       5.91250599     3.10974699     6.04060498    -0.05787890     0.56779415    -0.33032003
O       0.14103198     3.23412301     1.48357202    -0.78766674    -0.20313497    -0.27008909
