# total energy = -19068.21946197 eV

CRYSTAL
PRIMVEC
        7.60600008     0.00000000     0.00000000
        0.00000000     7.60600008     0.00000000
       -1.89786986    -1.89786986     4.85670466
PRIMCOORD
22 1
Ti      3.87744898     6.75070698     1.12413203    -0.53975009    -0.97646806     2.60581145
Ti      3.59017702     2.99177899     1.26835802     3.38328917    -0.21779772    -1.11661663
Ti     -0.22587301     6.76272100     1.17503798     1.54819034    -3.49302517     1.15612653
Ti      0.24647298     2.46478798     0.97093003    -0.90522328     1.84836855     3.39806710
Ti      5.82572420     2.98406623     3.66479979    -0.08340328    -2.02820237    -0.77807421
Ti     -1.28122978    -0.10391776     3.48919179     0.86272164    -2.69538512    -0.96372258
Ti      1.85964422     2.75371924     3.78359479    -0.60072356     0.29942333     1.31987244
Ti      1.50515325    -1.03287679     3.88820282     0.46524258     3.28933074    -2.05061803
O       3.98405201     4.90573299     0.92757099    -1.43426986    -2.91450772    -1.77909066
O       4.36595801     0.77111402     0.72976199    -0.28409543     2.06140175     0.35672013
O       0.54036602     4.27094699     0.67121901     2.04460910     3.36050713     1.24630081
O       6.97218602     0.75065502     0.98236301    -0.11069015     2.69855709     0.04934052
O       5.23036725     4.52888724     4.24671882    -0.03836010     0.21895214    -0.98088445
O       5.17537822     1.11346524     4.28070279    -1.83095960    -0.83740218    -4.65723629
O       1.80160623     4.84359620     4.04437779    -0.72394013    -3.11582620    -0.26277327
O       1.82848023     0.96987924     4.21874884     0.08044599     0.11397087    -1.00762110
O       3.48786224     2.61901225     3.01185682    -1.66340975     0.38328272     1.75914069
O       0.16204524     2.74676924     2.92777881    -0.07107097    -0.02942706     1.29661398
O       5.69426302     6.30079599     1.97081002     0.13306904     1.39421463     1.21550310
O       5.42311202     2.86812000     1.77195701     0.55747142     0.30867133     0.24381420
O       2.15253001     6.71859502     2.04131997    -0.15291359     0.29305522     0.33628448
O       1.93499498     1.74617703     0.60199199    -0.63622923     0.03830585    -1.38695846
