# total energy = -19936.22270198 eV

CRYSTAL
PRIMVEC
        5.80719441     0.00000000     0.00000000
        0.00002285     4.12040725     0.00000000
        0.00000000     0.00000000     9.02222318
PRIMCOORD
24 1
Ti      2.10484230     2.44174950     3.34718045    -0.49543531     2.49775283    -4.16832644
Ti      3.70237506     1.67865774     5.67504283     0.49543531    -2.49775283     4.16832644
Ti      5.00833940     1.67865918     1.16389512    -0.49295419    -2.49794438     4.17020978
Ti      0.79887797     2.44174826     7.85832821     0.49295419     2.49794438    -4.17020978
Ti      2.10483087     0.38154598     1.16393129    -0.49543531     2.49775283     4.16832644
Ti      3.70238649     3.73886142     7.85829204     0.49543531    -2.49775283    -4.16832644
Ti      0.79886654     0.38154444     5.67500661     0.49295419     2.49794438     4.17020978
Ti      5.00835082     3.73886295     3.34721662    -0.49295419    -2.49794438    -4.17020978
O       1.83802179     1.45086546     4.60397144     1.79541589    -2.59255329     3.48691006
O       3.96919557     2.66954184     4.41825184    -1.79541589     2.59255329    -3.48691006
O       1.06562558     1.45088206     0.09288885    -1.79443553    -2.59493876     3.48908779
O       4.74159188     2.66952523     8.92933413     1.79443553     2.59493876    -3.48908779
O       3.96918419     0.60933817     0.09285956    -1.79541589     2.59255329     3.48691006
O       1.83803317     3.51106908     8.92936343     1.79541589    -2.59255329    -3.48691006
O       4.74158045     0.60932161     4.60400068     1.79443553     2.59493876     3.48908779
O       1.06563686     3.51108573     4.41822254    -1.79443553    -2.59493876    -3.48908779
O       0.21100282     2.50626526     2.43712758     2.24202773    -0.66545162     1.73089043
O       5.59621454     1.61414204     6.58509570    -2.24202773     0.66545162    -1.73089043
O       3.11460652     1.61410361     2.07401275     2.24221053     0.66575193    -1.73069631
O       2.69261084     2.50630368     6.94821038    -2.24221053    -0.66575193     1.73069631
O       0.21099139     0.44606159     2.07398391     2.24202773    -0.66545162    -1.73089043
O       5.59622597     3.67434566     6.94823917    -2.24202773     0.66545162     1.73089043
O       2.69259947     0.44610001     6.58512444    -2.24221053    -0.66575193    -1.73069631
O       3.11461790     3.67430729     2.43709879     2.24221053     0.66575193     1.73069631
