# total energy = -19915.60624949 eV

CRYSTAL
PRIMVEC
        6.44180266     0.00000000     0.00000000
        1.68767021     6.64506295     0.00000000
        0.00000000     0.00000000    11.62196464
PRIMCOORD
24 1
Ti      3.33495551     3.93785835     4.31166621    -0.24631846    -1.85658014     0.70422259
Ti      4.79451755     2.70720504     7.31029908     0.24631846     1.85658014    -0.70422259
Ti      6.24319781     2.70720734     1.49927004     0.12386654    -0.43184548    -0.24350439
Ti      1.88627527     3.93785631    10.12269538    -0.12386654     0.43184548     0.24350439
Ti      2.49112054     0.61532692     1.49931663    -0.24631846    -1.85658014    -0.70422259
Ti      5.63835254     6.02973673    10.12264879     0.24631846     1.85658014     0.70422259
Ti      1.04244018     0.61532437     7.31025249    -0.12386654     0.43184548    -0.24350439
Ti      7.08703290     6.02973921     4.31171280     0.12386654    -0.43184548     0.24350439
O       2.63312859     2.33983977     5.93059987     1.80028890     1.99485489    -0.59615934
O       5.49634439     4.30522362     5.69136542    -1.80028890    -1.99485489     0.59615934
O       1.77633200     2.33986659     0.11965467    -0.77463022     0.13798704     0.94459074
O       6.35314113     4.30519692    11.50231029     0.77463022    -0.13798704    -0.94459074
O       4.65250940     0.98269200     0.11961696    -1.80028890    -1.99485489    -0.59615934
O       3.47696365     5.66237139    11.50234800     1.80028890     1.99485489     0.59615934
O       5.50930613     0.98266523     5.93063758     0.77463022    -0.13798704     0.94459074
O       2.62016686     5.66239823     5.69132771    -0.77463022     0.13798704    -0.94459074
O       1.26058228     4.04190413     3.13938277     0.51589255     1.60532233     1.71908289
O       6.86889071     2.60315927     8.48258252    -0.51589255    -1.60532233    -1.71908289
O       4.11607759     2.60309730     2.67163686     0.63659612     1.65232494     0.85618281
O       4.01339547     4.04196615     8.95032823    -0.63659612    -1.65232494    -0.85618281
O       0.41674729     0.71937251     2.67159974     0.51589255     1.60532233    -1.71908289
O       7.71272577     5.92569095     8.95036535    -0.51589255    -1.60532233     1.71908289
O       3.16956047     0.71943447     8.48261957    -0.63659612    -1.65232494     0.85618281
O       4.95991258     5.92562892     3.13934565     0.63659612     1.65232494    -0.85618281
