# total energy = -19074.29177862 eV

CRYSTAL
PRIMVEC
        7.60600008     0.00000000     0.00000000
        0.00000000     7.60600008     0.00000000
       -1.89786986    -1.89786986     4.85670466
PRIMCOORD
22 1
Ti      3.76600097     6.59971901     1.04621099     0.70356361     0.13917387     1.31732705
Ti      3.66404900     2.72525098     1.41473199    -0.32772373    -0.02313788    -0.15661778
Ti      0.00324999     6.91462598     1.13915801    -0.17145331    -1.18015067    -0.30931642
Ti     -0.32188402     2.99496099     1.39598498     1.25698298     1.05678216    -0.86807674
Ti      5.55283421     2.98215421     3.72486983    -1.05440620    -0.41449952     0.91006081
Ti      5.90994525    -0.87070079     3.49031979     0.41569920    -1.33696411    -0.42407946
Ti      1.70030122     2.74997520     3.76373980     0.78164290    -0.42871721    -0.75986797
Ti      2.05060222    -0.95346776     3.54396783    -0.72687427     0.16556368     0.81030429
O       3.57472203     4.76315999     0.79484503    -0.25685073    -1.63934190     0.20455422
O       4.09742998     0.83255298     1.12360200    -0.97157088     2.48781474    -0.57410492
O      -0.18001700     4.81889500     0.77783298     0.91816211    -1.58425882     0.40276937
O      -0.15447800     1.33219298     0.49572600    -0.48354164    -1.08319536     0.98984577
O       5.87008624     4.69626923     4.02013581     0.02509835     4.60928957     0.65826745
O       0.12216522    -0.58449580     3.27803584    -1.68377803    -0.03363261    -0.74325169
O       1.78970625     4.79118024     4.04238882     0.04367277     0.16888580    -0.65477743
O       2.13400521     0.84103220     3.97473282    -0.32685264     0.78372858     1.24343043
O       3.70392023     2.96536521     3.43236684    -0.66104655    -0.83229931    -1.05728969
O      -0.21502678     2.79383421     3.31383881     0.72055553    -1.02533344    -0.11813401
O       5.77050900     6.43294499     1.51155402    -0.64685920     1.23288402     1.03772462
O       5.43401699     3.30570900     1.65360900     1.05106325    -1.32399598     0.47435842
O       1.88748302     6.55618301     1.69314801     0.76745478     0.49932796    -1.12237411
O       1.73641900     2.89083801     1.85241502     0.62706144    -0.23792380    -1.26075247
