# total energy = -19073.10212101 eV

CRYSTAL
PRIMVEC
        5.93400000     0.00000000     0.00000000
        0.00000000     9.29699974     0.00000000
        0.00000000     0.00000000     4.64899994
PRIMCOORD
22 1
Ti      4.58488700     7.04673302     2.15651498    -1.25496492    -1.73814274     1.70899748
Ti      4.28544602     2.48328903     2.20737500     0.43250419    -1.48719218    -0.70148539
Ti      1.62833200     7.06771400     2.53234000     0.63287471    -1.13056822     1.28414258
Ti      1.55602099     2.46834802     2.19788998    -0.37524699    -0.37866347     0.51790624
Ti      3.02590299     4.70805099     0.02837099    -0.36836723     0.84771462    -1.64697216
Ti      2.91679002     0.05248100     0.11289801     0.52364212     0.25969360    -0.08233010
Ti      5.71160702     4.42869102     4.44291398     1.78123651     0.47830121    -0.20982729
Ti      5.83676601     9.02640199     0.17935801     0.18675549     0.37987523    -0.91007161
O       4.54332701     5.69353101     0.66061800    -0.00580272    -0.14454824     1.25307747
O       4.55143897     0.81040400     0.98549002     0.21386058     1.15024205     0.05349876
O       1.41195201     0.41246297     1.20654202    -0.40195588     3.15679006    -0.78022031
O       4.36762598     8.22694900     3.80222702     1.37942538     1.35270056     0.49075718
O       4.21550001     3.67403701     3.67243799     0.41922444    -0.58012028     0.40825045
O       1.69260598     8.38196602     3.72710602    -1.89101005     0.37998965     0.66314534
O       1.49466501     3.81680199     3.76629599    -0.41937331    -0.06400069     0.50014866
O       3.11065702     6.00600499     3.17394598    -1.26742654     0.19894561    -0.71909206
O       2.78755700     1.47450700     3.10612901     1.37123153    -0.67385399     1.85218767
O       0.09043301     6.07365200     3.21770100     0.34204015    -0.77631301     0.01630697
O       3.07766599     7.98262802     1.63363198    -0.25037720    -0.34254743    -1.95926567
O       2.92033800     3.62320498     1.53716699    -0.57802894    -0.43919035    -0.07687396
O       0.18493798     7.62231901     1.31177902     0.79327895    -0.46200221    -0.37949111
O       0.03128702     3.32645100     1.49662799    -1.26352078     0.01289074    -1.28278889
