# total energy = -4988.65933262 eV

CRYSTAL
PRIMVEC
        2.78880391     0.00000000     0.00000000
        0.00000000     4.36963763     0.00000000
        0.00000000    -0.00005671     4.36963763
PRIMCOORD
6 1
Ti      1.39440191     2.18479041     2.18481877     0.00000000     0.00000000     0.00000000
Ti      0.00000000     0.00000000     0.00000000     0.00000000     0.00000000     0.00000000
O       1.39440191     0.85156695     0.85157800    -0.00000000     0.85859631     0.85859631
O       1.39440191     3.51801387     3.51805953    -0.00000000    -0.85859631    -0.85859631
O       0.00000000     1.33320047     3.03639766    -0.00000000    -0.85913753     0.85913753
O       0.00000000     3.03638036     1.33323988     0.00000000     0.85913753    -0.85913753
