# total energy = -19956.01148447 eV

CRYSTAL
PRIMVEC
        5.32035523     0.00000000     0.00000000
        1.39386527     5.48823013     0.00000000
        0.00000000     0.00000000     9.59870763
PRIMCOORD
24 1
Ti      2.75437621     3.25232025     3.56105225     1.00800600    -1.94183821     0.94928661
Ti      3.95984445     2.23591024     6.03765592    -1.00800600     1.94183821    -0.94928661
Ti      5.15632532     2.23591213     1.23826351    -1.94823717    -0.45691914     0.73118601
Ti      1.55789537     3.25231857     8.36044477     1.94823717     0.45691914    -0.73118601
Ti      2.05744368     0.50820523     1.23830200     1.00815666    -1.94211820    -0.95632629
Ti      4.65677700     4.98002548     8.36040629    -1.00815666     1.94211820     0.95632629
Ti      0.86096274     0.50820312     6.03761744     1.94806568     0.45662166     0.72992900
Ti      5.85325794     4.98002753     3.56109074    -1.94806568    -0.45662166    -0.72992900
O       2.17472969     1.93249925     4.89814726     0.69033348     1.16646957    -0.72411419
O       4.53949092     3.55573125     4.70056091    -0.69033348    -1.16646957     0.72411419
O       1.46709202     1.93252140     0.09882410     0.13055835    -0.43419392     0.57415892
O       5.24712871     3.55570920     9.49988380    -0.13055835     0.43419392    -0.57415892
O       3.84255837     0.81161607     0.09879296    -0.69105699    -1.16728204    -0.72407023
O       2.87166228     4.67661442     9.49991495     0.69105699     1.16728204     0.72407023
O       4.55019616     0.81159396     4.89817841    -0.13094402     0.43510435     0.57478189
O       2.16402445     4.67663659     4.70052977     0.13094402    -0.43510435    -0.57478189
O       1.04112868     3.33825280     2.59285055     0.03985391     0.43725765     0.29793080
O       5.67309192     2.14997770     7.00585762    -0.03985391    -0.43725765    -0.29793080
O       3.39951348     2.14992652     2.20653409     1.04944500     0.18098645    -0.44612976
O       3.31470719     3.33830403     7.39217393    -1.04944500    -0.18098645     0.44612976
O       0.34419614     0.59413762     2.20650343     0.03968859     0.43724557    -0.29788529
O       6.37002452     4.89409293     7.39220458    -0.03968859    -0.43724557     0.29788529
O       2.61777464     0.59418879     7.00588823    -1.04899300    -0.18091651    -0.44545613
O       4.09644602     4.89404170     2.59281989     1.04899300     0.18091651     0.44545613
