# total energy = -19960.24393822 eV

CRYSTAL
PRIMVEC
        5.93400000     0.00000000     0.00000000
        0.00000000     9.29699974     0.00000000
        0.00000000     0.00000000     4.64899994
PRIMCOORD
24 1
Ti      4.41979301     6.79623501     2.30313100    -1.42493264     2.53684852     1.12189305
Ti      4.46900501     2.43754901     2.42755602     0.68941251    -2.19249129    -1.32451405
Ti      1.43087099     7.02105099     2.21957698     1.67391862     1.33852889     0.30811058
Ti      1.49385103     2.30204502     2.35752598    -0.52184492    -1.21958884    -0.66217578
Ti      2.98671699     4.62612901     0.01170101    -2.08015744    -1.32228954    -0.36050042
Ti      2.97046098     9.29691899     4.55272398     0.76199941     1.08324962     1.11693982
Ti      5.91057602     4.74560898     0.01881601     2.30011283    -2.06212783    -0.27690354
Ti      0.02099500     9.17923902     0.03510599    -0.93700753     2.24747487    -0.11035205
O       4.47545002     5.58780299     0.84858700    -0.49906956     0.18039098     0.25948046
O       4.42303703     0.88157400     0.83673703     0.51293090     0.56395600     0.41348728
O       1.46249002     5.62601001     0.78563999     0.29996120    -0.12646310     0.38282275
O       1.54091801     0.92485901     0.85998600    -0.62884784     0.02097070     0.11098094
O       4.43105898     8.34988301     3.79518002     0.73941483    -1.04448636    -0.89568217
O       4.52358700     3.74332700     3.77486199    -0.65427915     0.56826492     0.79532761
O       1.47820802     8.42858601     3.74288498    -0.40445833    -1.46269522    -0.83280453
O       1.44151402     3.63300503     3.75733702     0.56274116     2.08634223     1.78221712
O       2.97904699     6.00401402     3.27400700     0.32635179     0.15788636    -0.76269335
O       2.95453401     1.40160897     3.23797802     0.89063844     0.37554472    -0.48342979
O       5.92657797     6.13067301     3.13416302    -0.16951084    -1.51697791     1.15743291
O       0.06242799     1.41561100     3.13036898    -1.35540639    -0.53083915     0.91029093
O       2.89715601     7.90894797     1.42439302     0.56680067    -1.30319292     0.69180364
O       2.93355902     3.34433598     1.62800799     1.27824061     1.13426084    -2.00090624
O       0.04235201     7.98195602     1.50675999    -0.75473244    -0.80755629    -0.23376607
O       0.05391702     3.25594300     1.49107401    -1.17227538     1.29499007    -1.10705907
