# total energy = -19960.74111913 eV

CRYSTAL
PRIMVEC
        5.93400000     0.00000000     0.00000000
        0.00000000     9.29699974     0.00000000
        0.00000000     0.00000000     4.64899994
PRIMCOORD
24 1
Ti      4.42882400     7.02148799     2.39092198    -0.36906091    -0.48630995    -0.36607329
Ti      4.48157398     2.28287600     2.33328098     0.22259051    -0.03781940     0.63416900
Ti      1.48099101     7.01394599     2.32154499     0.20902099     0.04561781    -0.08905893
Ti      1.48793900     2.40487099     2.26805899    -0.27303300    -0.61831274     0.41996389
Ti      2.94440001     4.62173398     0.04823001     1.25166902     0.10723870     0.09975395
Ti      2.95515500     9.25632401     4.62641201    -0.54923900     0.32736737    -0.54674760
Ti      0.04038601     4.72102700     4.61741701    -1.15778567    -0.20355560     0.21242154
Ti      5.92052397     9.28436299     0.06190300     0.51731823    -0.07411413    -0.25409065
O       4.35502097     5.52235302     0.91185998     0.21696853     0.21790364     0.11772109
O       4.47229099     0.88161999     0.85821501     0.00090683     0.14348741    -0.51855828
O       1.45094798     5.46614900     1.01523402     0.32074678    -0.00323111    -0.64362192
O       1.51318002     0.86917501     0.82864998    -0.27600803    -0.07457179    -0.56948979
O       4.49520902     8.34147899     3.70352901    -0.03067584     0.70519858     0.56112882
O       4.46100401     3.70835198     3.81692698    -0.51425605    -0.30835354    -0.77694447
O       1.52719501     8.25994198     3.68730501    -0.18521874     1.69247865     1.33192295
O       1.38250901     3.71162298     3.73463600     0.74618429     0.35915316     0.11336075
O       2.89557901     6.14816798     3.18847301     1.07982362    -1.35123991     0.81859790
O       2.87936301     1.28482300     3.14805900     1.11022538     0.64295575     0.10443388
O       0.06050798     6.19072500     3.37931401    -0.73836299    -0.71090206    -0.80161190
O       0.06893698     1.37567601     2.97909900    -0.98498690    -1.01598542     2.00261037
O       3.02572799     7.97240998     1.46462203    -0.15079423    -0.49662162    -0.44593975
O       2.98187300     3.22518701     1.49268202     0.43909367     0.58054194    -1.14646664
O       5.92355002     7.87905898     1.37244797    -0.15214226    -0.04297241    -0.16949310
O       0.02067199     3.17747702     1.36977700    -0.73298476     0.60204691    -0.08798755
