# total energy = -19919.21572486 eV

CRYSTAL
PRIMVEC
        6.35889675     0.00000000     0.00000000
        1.98569113     6.46993033     0.00000000
        0.00000000     0.00000000    11.51417170
PRIMCOORD
24 1
Ti      3.48151292     3.83407475     4.27167558    -0.18686733    -2.05259675     0.70320315
Ti      4.86307485     2.63585572     7.24249618     0.18686733     2.05259675    -0.70320315
Ti      6.29311072     2.63585795     1.48536430    -0.07769671    -0.69576520    -0.06821473
Ti      2.05147715     3.83407277    10.02880759     0.07769671     0.69576520     0.06821473
Ti      2.48866750     0.59910970     1.48541046    -0.18686733    -2.05259675    -0.70320315
Ti      5.85592030     5.87082097    10.02876143     0.18686733     2.05259675     0.70320315
Ti      1.05863160     0.59910728     7.24245002     0.07769671     0.69576520    -0.06821473
Ti      7.28595620     5.87082338     4.27172174    -0.07769671    -0.69576520     0.06821473
O       2.71182654     2.27817250     5.87559369     1.83182812     2.07463085    -0.69164578
O       5.63276124     4.19175804     5.63857808    -1.83182812    -2.07463085     0.69164578
O       1.86605819     2.27819860     0.11854487    -0.59583744    -0.16599280     1.16583836
O       6.47852966     4.19173199    11.39562657     0.59583744     0.16599280    -1.16583836
O       4.63991579     0.95679279     0.11850752    -1.83182812    -2.07463085    -0.69164578
O       3.70467198     5.51313775    11.39566392     1.83182812     2.07463085     0.69164578
O       5.48568422     0.95676674     5.87563104     0.59583744     0.16599280     1.16583836
O       2.85890351     5.51316387     5.63854072    -0.59583744    -0.16599280    -1.16583836
O       1.43884334     3.93537844     3.11026503     0.54105544     1.97605729     1.98909742
O       6.90574444     2.53455210     8.40390673    -0.54105544    -1.97605729    -1.98909742
O       4.18835710     2.53449177     2.64685747     0.69878342     1.80751216     1.03564331
O       4.15623067     3.93543877     8.86731410    -0.69878342    -1.80751216    -1.03564331
O       0.44599783     0.70041320     2.64682069     0.54105544     1.97605729    -1.98909742
O       7.89858988     5.76951735     8.86735088    -0.54105544    -1.97605729     1.98909742
O       3.16338522     0.70047352     8.40394344    -0.69878342    -1.80751216     1.03564331
O       5.18120255     5.76945702     3.11022825     0.69878342     1.80751216    -1.03564331
