# total energy = -4986.32402666 eV

CRYSTAL
PRIMVEC
        4.07364504     0.00000000     0.00000000
        1.74480164     3.68106658     0.00000000
       -2.90926191    -1.84055769     5.34254420
PRIMCOORD
6 1
Ti      1.30849833     2.76094161     1.33563599     0.00019643    -0.00019643     0.00000000
Ti      1.60068672    -0.92043250     4.00690787    -0.00019643     0.00019643     0.00000000
O       0.43624272     0.92026181     0.87025673    -0.00047231    -0.00068520    -2.04476105
O       2.47294218     0.92024716     4.47228719     0.00047231     0.00068520     2.04476105
O      -0.43620602    -0.92023863     3.54152866    -0.00068520    -0.00047231    -2.04476105
O       3.34539086     2.76074757     1.80101526     0.00068520     0.00047231     2.04476105
