# total energy = -19072.30957631 eV

CRYSTAL
PRIMVEC
        7.60600008     0.00000000     0.00000000
        0.00000000     7.60600008     0.00000000
       -1.89786986    -1.89786986     4.85670466
PRIMCOORD
22 1
Ti      3.56635102     6.86492100     0.95529998    -0.04174907     0.08540385    -0.64008974
Ti      4.15247198     3.09898199     1.23755201    -0.96311400     0.54154138    -0.17579950
Ti     -0.22467099     6.48707902     1.12426099     0.32918463    -0.04003878    -0.71549071
Ti      0.15498998     2.49382902     1.23463699     0.60189187     1.77472518     0.07024668
Ti      5.93703224     2.66393522     3.75844681     0.08265997     1.27497993    -1.05056831
Ti      5.39729521    -1.16782677     3.64337981     1.95754560    -0.54456474    -0.04787473
Ti      2.11768120     2.83365522     3.57965380     0.49720243     0.17116020    -1.99288054
Ti      1.16789223    -0.55815177     3.79870482    -0.77994186    -0.41033073    -1.20535058
O       3.86786601     5.00625698     0.49043698    -0.51367189     0.39064996     3.30933470
O       3.81007699     1.41943399     0.63638200     0.13738155    -3.25498593     2.20755436
O       0.11722398     4.52881400     0.69207198     0.34487968    -0.16361324     1.64426479
O       7.07359501     0.86877903     0.68664198    -1.32012672    -0.53854141     1.59880073
O      -1.55883780     4.70737724     4.11990683    -0.77540104    -0.61999759    -0.18007962
O      -0.80194076    -0.02257978     4.14077880     1.01723703     1.27218823    -0.04454695
O       1.54316124     5.09792625     3.87892280     0.06868319     0.84598093     1.60861129
O       2.29577321     1.06355324     3.93780080    -0.53270603    -0.74209470    -0.15755392
O       4.10165324     2.67347120     3.59414780     0.01595267     0.71110852    -1.69287254
O       0.22573924     2.51295020     3.08648383     0.01952856    -0.63596440     0.94875105
O       5.43762798     6.65944502     1.80602300    -0.51045390    -0.01039523    -0.79520214
O       5.93823601     3.15978298     1.85979900    -0.94807742    -0.39949841    -1.56039717
O       1.46339402     6.86518998     1.86283801     1.05801783     0.37968009    -0.41913239
O       2.22508799     3.17008098     1.73161502     0.25507718    -0.08739337    -0.70972475
