# total energy = -19517.77995193 eV

CRYSTAL
PRIMVEC
        5.93400000     0.00000000     0.00000000
        0.00000000     9.29699974     0.00000000
        0.00000000     0.00000000     4.64899994
PRIMCOORD
23 1
Ti      4.49176800     6.91953998     2.26099399     2.26782824     0.64521961    -0.22043593
Ti      4.42879500     2.25926501     2.40695600    -0.04098854    -0.17858812    -0.22458594
Ti      1.58549902     7.06200100     2.23730400    -2.18562516     0.61258510    -0.05433026
Ti      1.39375202     2.36247400     2.28999899     0.13720517    -0.40203455    -0.50610179
Ti      2.90978102     4.43694603     0.11152199     0.61123887     0.27379842     0.91688375
Ti      2.97008701     0.00284200     4.49525501    -0.59549908    -0.94213508     0.48098622
Ti      0.01349698     4.66661800     4.64702902    -0.49639793     0.96830455    -0.12900926
Ti      5.93140402     0.13034202     0.04123503     0.03181150    -1.31228537     0.37905068
O       4.51909000     5.61443902     0.82040101    -1.09561637     0.20600920     0.58446056
O       4.48883000     0.96216802     1.01588898    -0.45848674    -0.11127481    -0.60195718
O       1.54719299     5.46852098     0.99301497    -0.11688625     0.66630729    -0.37373492
O       1.51160302     0.86135901     0.87912201    -0.07589899     1.21984004     1.09606785
O       4.47820000     8.44627900     3.81132199    -0.09870392    -0.63345218    -1.07543783
O       4.37038500     3.76459500     3.84177900     0.67164541    -0.51917971    -0.90217755
O       1.37578698     8.45249900     3.65124402     1.24034870    -0.53899573     0.17256865
O       1.46701698     3.69060899     3.80893498     0.33499687     0.00199775    -0.29855172
O       2.85715000     1.37159902     3.27016999     0.59796554     0.81940265    -0.55249736
O       0.12385499     6.06868699     3.11813699    -0.72018966    -0.72562883     1.16841050
O       0.06107801     1.47732202     3.23816799    -0.70667517    -0.29239676     0.62150708
O       3.03319002     7.90343601     1.38625199    -0.11625736    -0.55132340     0.41236936
O       2.97138799     3.21629001     1.56056101    -0.11383204     0.58852959    -0.75274987
O       5.92354801     7.85360402     1.35439102     0.07773348     0.43610759     0.04762173
O       5.79794398     3.31237198     1.50270601     0.85028290    -0.23080699    -0.18835754
