# total energy = -4983.99274485 eV

CRYSTAL
PRIMVEC
        2.71326494     0.00000000     0.00000000
        0.84183743     4.16709568     0.00000000
       -0.00000561    -0.00005566     4.27291012
PRIMCOORD
6 1
Ti      1.77754833     2.08352001     2.13645516     0.00000000     0.00000000     0.00000000
Ti      0.00000000     0.00000000     0.00000000     0.00000000     0.00000000     0.00000000
O       1.52069305     0.81209477     0.83272730    -4.55242651     2.28289980     2.55900167
O       2.03440362     3.35494526     3.44018301     4.55242651    -2.28289980    -2.55900167
O       0.25685299     1.27140270     2.96918323     4.55290448    -2.28468286     2.56074796
O       0.58497883     2.89563722     1.30372709    -4.55290448     2.28468286    -2.56074796
