# total energy = -4989.40909842 eV

CRYSTAL
PRIMVEC
        4.03259659     0.00000000     0.00000000
        0.20149527     4.02755943     0.00000000
       -2.11708173    -2.01381377     5.14810021
PRIMCOORD
6 1
Ti      0.15095854     3.02082251     1.28702491     0.00004294    -0.00004294     0.00000000
Ti      1.96605107    -1.00707734     3.86107502    -0.00004294     0.00004294    -0.00000000
O       0.05041624     1.00688327     0.83858343    -0.00056564    -0.00146939    -0.74283029
O       2.06659320     1.00686179     4.30951656     0.00056564     0.00146939     0.74283029
O      -0.05039635    -1.00686435     3.41263353    -0.00146939    -0.00056564    -0.74283029
O       2.16740579     3.02060935     1.73546651     0.00146939     0.00056564     0.74283029
