# total energy = -4988.86606521 eV

CRYSTAL
PRIMVEC
        3.69186669     0.00000000     0.00000000
        1.08318054     3.52939082     0.00000000
       -2.38755693    -1.76472004     4.76676906
PRIMCOORD
6 1
Ti      0.81227242     2.64717842     1.19169199     0.00030596    -0.00030596     0.00000000
Ti      1.57521764    -0.88250781     3.57507636    -0.00030596     0.00030596     0.00000000
O       0.27083375     0.88234281     0.77646760     0.00006402     0.00038258    -0.57040948
O       2.11665615     0.88232772     3.99030075    -0.00006402    -0.00038258     0.57040948
O      -0.27080532    -0.88232180     3.15985197     0.00038258     0.00006402    -0.57040948
O       2.65829520     2.64699223     1.60691643    -0.00038258    -0.00006402     0.57040948
