# total energy = -19046.44172588 eV

CRYSTAL
PRIMVEC
        7.60600008     0.00000000     0.00000000
        0.00000000     7.60600008     0.00000000
       -1.89786986    -1.89786986     4.85670466
PRIMCOORD
22 1
Ti      4.06901199     6.77457499     1.44335698     0.25263463    -1.77149253    -1.84638880
Ti      4.32794922     2.58472622     2.42876980    -3.42138007     4.98356442    -6.19857618
Ti      0.05104301     6.17028299     0.70783199    -1.18397390     4.36309606     3.78363990
Ti     -1.78256976     0.76182521     4.75877581    -9.37840282   -10.14193127    10.67058601
Ti     -0.99832178     2.59456024     3.89630780    -4.67383868    17.90456022     8.78537894
Ti     -0.82488578     1.37114625     2.89346580     5.67225368   -18.22473956   -24.04098176
Ti      1.01711921     2.53045221     4.29384380    12.57080576     1.42668870     5.06774931
Ti      0.82471624    -0.65942079     4.21678284     2.37731563    -1.38609817     0.00380061
O       4.15008698     4.55014000     2.17417802    -0.55659879     0.94199033    -0.68728441
O       3.54859501     0.98482998     1.24863399     0.45318924    -3.15399681     0.77593223
O       0.51379200     4.09869498     0.80453098     1.19132212     3.22538352     1.85014698
O       0.10955398     0.75829100     0.75198400    -0.38770065    -0.83170796     2.02060193
O       6.01794720     4.15702825     3.84034683    -1.94081080     5.69807554    -0.84748297
O       4.47419524     1.31469823     3.57326584     2.37596888    -2.75993346     2.01669899
O       1.39829924     4.51150424     4.75173680    -0.81925044     0.65398733     1.52682858
O       3.50302301     2.81071099     0.05897199    -1.80699665    -1.04885673    -1.54844462
O       2.55250123     2.66879724     3.34360481     0.90234802     0.08987603     0.18617442
O       0.42163721     3.08705524     2.81168579    -2.10728336    -0.71173073    -4.48868010
O       5.94631999     6.24834103     0.54653500    -1.79645101     0.47728923     1.98450825
O       5.84537001     2.31394601     1.06058202    -0.01261307     0.26339162     3.13606671
O       1.28283821    -0.81645980     2.44210083     0.11637717    -0.61654254     1.29053666
O      -0.98177075    -0.50123378     3.76786781     2.17308511     0.61912701    -3.44081042
