# total energy = -19060.96783811 eV

CRYSTAL
PRIMVEC
        7.60600008     0.00000000     0.00000000
        0.00000000     7.60600008     0.00000000
       -1.89786986    -1.89786986     4.85670466
PRIMCOORD
22 1
Ti      3.89673802     6.66802198     1.67139100     0.14673780    -1.05705418    -3.74808410
Ti      3.84779701     2.75282800     1.57951101     1.84619751     1.52133696    -0.18550593
Ti      0.25362402     6.48420501     1.23786502    -1.11346086    -2.09868585    -1.56745717
Ti      0.30717199     2.46577802     0.71102801    -0.56454736     1.24671990     0.06916347
Ti      5.94062821     2.51858822     3.71611983    -1.45882725     3.69628304     1.28644423
Ti     -0.65884578     0.79757622     2.53967683    -2.27209576     0.28787290    -1.10189680
Ti      1.29731825     2.75554024     4.17814480     4.78143656     1.53887189    -1.26667733
Ti      1.02039625    -0.48726980     4.02872981     7.48167103    -5.58024595    -1.01109646
O       3.42145801     4.62770098     1.05805398     0.85025616    -0.69926447     4.86458169
O       3.67778803     1.00242602     0.79403501     0.19210673    -1.35762113     5.40272638
O       0.18794799     4.33890599     0.83122300     0.93415129    -1.10892132    -0.56512946
O       7.20454601     0.77040900     0.69081201     0.93000692    -0.54499668     1.13018666
O       5.71507821     4.25665825     4.41973083     0.74726133     0.60369602    -3.98168100
O       5.45652824     0.51809421     3.75332982    -5.31058907     5.37926403    -1.60299523
O       1.42351723     4.63544422     4.74146880    -0.06836514     0.54384663     0.98846946
O       1.99037725     0.91702824     4.40755182     1.14052173     4.02142487    -0.74709652
O       2.87450924     3.15718821     3.05915283     0.65801676    -1.72233045    -0.04051829
O       0.26950225     2.87024825     2.77298679    -2.09571391    -2.18628542    -0.92868821
O       6.12430802     6.47942299     1.63710698    -3.55849243     0.07583446     1.53054023
O       5.91063000     2.80366399     1.74961001    -3.84155839    -1.20871050     0.18436796
O       1.67142322     6.22199620     2.50541879     1.72434363     1.31784615    -0.52451938
O      -0.59008878    -0.49304275     3.97116580    -1.14905728    -2.66888012     1.81486603
