# total energy = -19519.26000167 eV

CRYSTAL
PRIMVEC
        7.60600008     0.00000000     0.00000000
        0.00000000     7.60600008     0.00000000
       -1.89786986    -1.89786986     4.85670466
PRIMCOORD
23 1
Ti      3.80296602     6.65131601     1.20979598     0.25361037     0.11898170     0.39187509
Ti      3.81140602     2.87512700     1.17842799     0.49356997    -0.33338941     1.49720278
Ti      0.00499998     6.65867898     1.20297499    -0.48954491    -0.53344548    -0.02022610
Ti      0.00168601     2.80975302     1.09398998    -0.96348321     0.42370382    -0.22092521
Ti      5.69588024     2.91531621     3.66679283    -0.98938863    -1.28734412     0.27137515
Ti      5.74800023    -1.00503576     3.61011880    -1.16479861     0.96664593    -0.37301707
Ti      2.01811021     2.87605724     3.66242479     0.81946822    -0.29736079     1.27644289
Ti      1.86156820    -0.91937276     3.64123183     0.88256054     0.00958585     0.07705882
O       3.82466900     4.69311602     0.85294599    -0.48569571     1.03795267     0.34286188
O       3.71788400     1.03246900     0.78547801     0.20435033    -1.32508175    -0.33157344
O      -0.18657700     4.76245999     0.74587401     1.01952917    -0.16429818     0.57511974
O      -0.16364902     0.90941899     0.81150099     0.50371632     0.10033528    -0.55366207
O       5.72467622     4.74287620     3.98218983     0.46834693     0.48104767     0.41495435
O       5.81632723     0.94933621     4.04562681     0.44678230    -0.19930325    -0.03270779
O       1.93743020     4.72549522     4.08174284    -0.42029890     0.84838131    -0.09780274
O       1.73718525     1.02099623     4.09406579    -0.11946481    -0.81817572    -0.26530581
O       3.82237020     2.70408924     3.27815284    -0.11634066     0.44989308    -0.37522128
O       3.81972024    -0.85216477     3.22635580    -0.62822075    -0.10969050    -0.11351502
O      -0.00437275    -0.92713378     3.19260684     0.20186895    -0.25000208    -0.00474112
O       5.67120698     6.54857101     1.56956502     0.19964186     0.47771449     0.63203396
O       5.79571001     2.86511502     1.78666501     0.07044260    -0.15820338    -1.31309347
O       1.88215700     6.59467499     1.59021198    -0.03000067     0.11840474     0.25980801
O       1.72812298     2.74909402     1.89320300    -0.15665017     0.44364761    -2.03694155
