# total energy = -19960.82857615 eV

CRYSTAL
PRIMVEC
        5.93400000     0.00000000     0.00000000
        0.00000000     9.29699974     0.00000000
        0.00000000     0.00000000     4.64899994
PRIMCOORD
24 1
Ti      4.42412898     6.97743001     2.20079802     0.70728040     0.44823575     0.73145984
Ti      4.45230503     2.38615500     2.36834098     0.00796914    -0.63973673    -1.32809483
Ti      1.50140402     6.88952600     2.25811098    -0.68124360     1.24805945     0.94278891
Ti      1.45869302     2.27020797     2.42832799    -0.03606976    -0.57896174    -1.29267479
Ti      2.95214499     4.64519902     0.02049101     0.28087307    -0.60131800     0.40432258
Ti      3.00178499     0.04246801     0.03989901    -0.75366158     0.42976288     0.03701850
Ti      0.00912201     4.65139299     4.57053899    -0.25753619    -0.32785537     0.12029271
Ti      5.90398200     9.26519101     4.64002298     0.75717679     0.07567325     0.27431007
O       4.53323501     5.50885101     0.85940502    -0.62131579     0.24922149     0.30612260
O       4.51783098     0.96167398     0.98200401    -1.06839198    -0.51755143    -0.46120826
O       1.49809302     5.55916698     0.92572898    -0.02401617    -0.34964316    -0.76077377
O       1.48452999     0.84318002     0.99700201     0.26996542     0.40067238     0.18039561
O       4.42914500     8.39839698     3.79301902    -0.39356816    -0.08363725    -0.54771254
O       4.44495899     3.76721898     3.65664898     0.18758544     1.04483243     1.16786285
O       1.37221598     8.41074199     3.80232100     1.49553002    -0.21683458    -0.73873143
O       1.57031402     3.77124602     3.74409198    -0.50514328     0.16825202     0.14617627
O       2.90746200     6.09890201     3.18197900     0.50318256    -0.42929391     0.45106679
O       3.01232202     1.42303102     3.14013299    -0.35320286    -0.65876033     1.55223495
O       0.04730300     6.15575803     3.22611900    -0.37160193    -1.17864941     0.48076819
O       0.04046502     1.48645498     3.43684701    -0.32209044     0.75063950    -1.36888874
O       3.01247300     7.95813600     1.42095501    -0.31872075    -0.74263283     0.18401109
O       2.90673100     3.22822301     1.43899799     0.62800041     0.75846517    -0.64152879
O       5.84040702     7.78367097     1.34498600     0.48742812     0.35437579     0.40118686
O       0.00446700     3.20426800     1.42315898     0.38157113     0.39668511    -0.24040441
