# total energy = -4977.43417185 eV

CRYSTAL
PRIMVEC
        4.82999823     0.00000000     0.00000000
       -0.00001075     4.82999823     0.00000000
       -2.41503699    -2.41504237     6.16415195
PRIMCOORD
6 1
Ti     -0.00021270     3.62268161     1.54103782    -0.00603875     0.00603875    -0.00000000
Ti      2.41516305    -1.20772589     4.62311372     0.00603875    -0.00603875     0.00000000
O       0.00004825     1.20749135     1.00408992    -0.00044737    -0.00241504    -1.33025045
O       2.41490197     1.20746424     5.16006170     0.00044737     0.00241504     1.33025045
O      -0.00002728    -1.20747038     4.08616582    -0.00241504    -0.00044737    -1.33025045
O       2.41497743     3.62242591     2.07798579     0.00241504     0.00044737     1.33025045
