# total energy = -19891.28151435 eV

CRYSTAL
PRIMVEC
        8.94887634     0.00000000     0.00000000
        0.00002931     4.08184728     0.00000000
        0.00000000     0.00000000    13.61949036
PRIMCOORD
24 1
Ti      3.24355448     2.41889894     5.05273379     0.25238112    -0.33637472     2.78126591
Ti      5.70535078     1.66294841     8.56675677    -0.25238112     0.33637472    -2.78126591
Ti      7.71783948     1.66294980     1.75695702     0.25239141     0.33624668    -2.78191614
Ti      1.23106577     2.41889768    11.86253367    -0.25239141    -0.33624668     2.78191614
Ti      3.24354002     0.37797536     1.75701165     0.25238112    -0.33637472    -2.78126591
Ti      5.70536523     3.70387205    11.86247903    -0.25238112     0.33637472     2.78126591
Ti      1.23105131     0.37797384     8.56670213    -0.25239141    -0.33624668    -2.78191614
Ti      7.71785394     3.70387357     5.05278842     0.25239141     0.33624668     2.78191614
O       2.83238608     1.43728781     6.94992173     1.10927047     1.06024980    -2.44282016
O       6.11651918     2.64455948     6.66956882    -1.10927047    -1.06024980     2.44282016
O       1.64212484     1.43730427     0.14022027    -1.10973456     1.06042232    -2.44455411
O       7.30678048     2.64454308    13.47926989     1.10973456    -1.06042232     2.44455411
O       6.11650479     0.60363584     0.14017609    -1.10927047    -1.06024980    -2.44282016
O       2.83240047     3.47821151    13.47931407     1.10927047     1.06024980     2.44282016
O       7.30676609     0.60361937     6.94996591     1.10973456    -1.06042232    -2.44455411
O       1.64213910     3.47822798     6.66952464    -1.10973456     1.06042232     2.44455411
O       0.32515106     2.48281089     3.67896415    -2.13004406     0.63910115     0.00598322
O       8.62375419     1.59903640     9.94052640     2.13004406    -0.63910115    -0.00598322
O       4.79960062     1.59899837     3.13082442    -2.12927967    -0.63926801    -0.00595159
O       4.14930464     2.48284898    10.48866594     2.12927967     0.63926801     0.00595159
O       0.32513667     0.44188725     3.13078096    -2.13004406     0.63910115    -0.00598322
O       8.62376858     3.63996010    10.48870940     2.13004406    -0.63910115     0.00598322
O       4.14929025     0.44192528     9.94056980     2.12927967     0.63926801    -0.00595159
O       4.79961501     3.63992207     3.67892069    -2.12927967    -0.63926801     0.00595159
