# total energy = -78964.88578813 eV

CRYSTAL
PRIMVEC
       10.35150501     0.00002646     0.00000000
        0.00002858    11.01713167     0.00000000
        0.00000000     0.00000000     9.26345890
PRIMCOORD
94 1
Ti      7.19097036     8.68698527     3.27659424    -0.03164438     0.02496156     0.00341468
Ti      7.09914241     3.32570831     3.48376982    -0.00691781     0.01792985    -0.00777399
Ti      1.79577874     8.77110764     3.47014176     0.01804555    -0.01325456     0.02284992
Ti      1.83742647     3.39963389     3.48919064     0.02926379     0.01411793    -0.01510549
Ti      8.37214031     7.68638292     5.74178565    -0.00480128     0.00472800     0.00585106
Ti      8.54247856     2.19198468     5.83405277    -0.03589878     0.01170444     0.02286971
Ti      3.33435774     7.63973654     5.79187079    -0.02384159     0.01646766    -0.00393970
Ti      3.17039812     2.25985818     5.84075627     0.00619482    -0.00949457    -0.01236547
Ti      9.74281282     7.68625741     1.10981142     0.00490412     0.00432408     0.00602050
Ti      9.57335302     2.19217297     1.20255210     0.03509686     0.01210116     0.02299750
Ti      4.42954728     7.63933330     1.16034293     0.02303324     0.01605706    -0.00453054
Ti      4.59289431     2.25993105     1.20887949    -0.00589014    -0.00978922    -0.01307509
Ti      5.96795921     8.77086185     8.10191329    -0.01771259    -0.01297662     0.02283012
Ti      5.92602674     3.39972079     8.12087574    -0.02843667     0.01383125    -0.01525822
Ti      0.57274740     8.68706385     7.90826631     0.03182307     0.02521328     0.00330978
Ti      0.66432732     3.32602553     8.11575852     0.00637634     0.01791880    -0.00796734
Ti      7.04193707     6.04292642     1.18447340     0.02147489     0.02208321    -0.00676123
Ti      7.01998038     0.53588734     1.19559648     0.00954831    -0.00406183    -0.00487199
Ti      1.89768473     6.04771884     1.22260835     0.01109920     0.01819262     0.01436887
Ti      1.91498888     0.86031299     1.34527892    -0.00794368    -0.02759360    -0.04527097
Ti      8.47370857    10.49363407     8.07023678     0.00662291    -0.00173138    -0.00504965
Ti      8.49701023     4.96340342     8.04840626     0.02905348    -0.00765058    -0.02019577
Ti      3.48956799    10.40472578     7.93061161    -0.00275082     0.00299019    -0.00992523
Ti      3.28878125     4.93942317     8.08467543     0.01064000     0.00405360     0.01813143
Ti      5.86587207     6.04753450     5.85417852    -0.01144527     0.01787637     0.01421409
Ti      5.84835651     0.86062563     5.97701557     0.00807172    -0.02773836    -0.04546766
Ti      0.72186637     6.04309970     5.81621293    -0.02118770     0.02153505    -0.00666662
Ti      0.74388615     0.53576321     5.82751181    -0.00924646    -0.00384303    -0.00493343
Ti      9.64161798    10.49329778     3.43854164    -0.00615548    -0.00128992    -0.00490284
Ti      9.61771453     4.96366853     3.41699194    -0.02870458    -0.00811672    -0.02020836
Ti      4.27512811    10.40489817     3.29851885     0.00264464     0.00306784    -0.00990544
Ti      4.47456240     4.93919337     3.45306403    -0.01039112     0.00430557     0.01779333
O       6.77059446     7.47032198     4.71708014    -0.03775461     0.01405520    -0.00628352
O       6.84626198     1.92070369     4.71711385     0.00714690    -0.01172372     0.02491528
O       1.59839077     7.44032777     4.75779676    -0.01512555    -0.03565042    -0.02176260
O       1.67738325     1.87823686     4.67934524    -0.01192684    -0.00906057     0.01338363
O       8.61952083     9.12782493     4.54887213    -0.00249937    -0.00426778    -0.02181325
O       8.72949179     3.58258247     4.53622332     0.01626249     0.00911585     0.02154045
O       3.48625405     9.10011529     4.54874727     0.01355615    -0.01080224    -0.01777739
O       3.57210589     3.54509114     4.51244818     0.03746767     0.00409834    -0.01674971
O       6.16532901     7.44018764     0.12609962     0.01547445    -0.03575634    -0.02192972
O       6.08602405     1.87825223     0.04772141     0.01205514    -0.00910634     0.01281670
O       0.99295757     7.47024670     0.08520298     0.03734503     0.01410739    -0.00576390
O       0.91727073     1.92052514     0.08533231    -0.00729062    -0.01133214     0.02504153
O       9.49565193     9.12781670     9.18047121     0.00252251    -0.00431148    -0.02137642
O       9.38555883     3.58246594     9.16794108    -0.01620593     0.00954934     0.02155305
O       4.27782024     9.10022338     9.18047909    -0.01376543    -0.01055850    -0.01789540
O       4.19137389     3.54519961     9.14429858    -0.03762862     0.00438528    -0.01700965
O       8.72586810     6.33475002     0.07621769    -0.02188061    -0.00915699    -0.00067414
O       8.69196164     0.83728348     0.10222998    -0.00099605     0.00417470    -0.00845713
O       3.57853864     6.34251790     0.08752059    -0.02765840     0.02363153     0.01175277
O       3.25757072     0.59586295     0.06527639    -0.06457097    -0.00467864    -0.01016126
O       6.86768524    10.15298029     9.19181065    -0.01824481     0.01086112    -0.00725000
O       6.79919788     4.67283450     9.19965032     0.01849961     0.02769053     0.02714083
O       1.64710860     4.69737406     9.16214413    -0.00993140    -0.03381233    -0.00474497
O       9.38910353     6.33487592     4.70800626     0.02241206    -0.00926857    -0.00092046
O       9.42323422     0.83729136     4.73390074     0.00076310     0.00397287    -0.00827201
O       4.18507244     6.34238494     4.71933605     0.02760029     0.02391950     0.01168104
O       4.50613527     0.59583352     4.69699885     0.06521323    -0.00476426    -0.00988564
O       6.11643804     4.69730684     4.53041154     0.00952800    -0.03354237    -0.00495683
O       0.89615023    10.15294777     4.56009389     0.01798102     0.01063923    -0.00743255
O       0.96428589     4.67293973     4.56788504    -0.01846233     0.02751467     0.02681327
O       5.41910800     8.99586851     2.69222656    -0.00700549    -0.04509280    -0.05008717
O       5.39481546     3.38205868     2.44810425    -0.00506045     0.01928971     0.00981673
O       0.15465290     8.85593985     2.49928841     0.00432974    -0.00646221     0.01556675
O       0.19873787     3.35404076     2.50218436     0.02523616     0.00024400    -0.01978542
O      10.10328134     7.60038737     6.75176983     0.01605603    -0.02932241     0.00723817
O      10.19371977     2.14509961     6.77682060     0.01271771    -0.00064483     0.01737964
O       4.96344302     7.66164096     6.78240790    -0.00143133     0.00535587    -0.01256499
O       4.93591366     2.19893933     6.77342075     0.00510287     0.02655256     0.02914012
O       8.01191273     7.60031035     2.12008013    -0.01612288    -0.02939081     0.00739090
O       7.92151827     2.14518203     2.14501830    -0.01268069    -0.00081247     0.01756681
O       2.80024547     7.66166204     2.15061239     0.00150024     0.00505171    -0.01281593
O       2.82740197     2.19879018     2.14160597    -0.00516021     0.02669295     0.02917355
O       7.60911437     8.85596988     7.13108133    -0.00429040    -0.00637274     0.01571356
O       7.56472558     3.35404692     7.13396747    -0.02533412    -0.00020209    -0.02009395
O       2.34477652     8.99615357     7.32412603     0.00655323    -0.04544067    -0.04974238
O       2.36868396     3.38218057     7.07983856     0.00484910     0.01893927     0.00934879
O       5.39498003     6.17073513     2.16976923    -0.01742206     0.00320051    -0.00652238
O       5.30555175     0.58205497     2.07190961    -0.00978742    -0.01204537    -0.00425569
O       0.23253669     6.10193162     2.12854671     0.01656177     0.00399961     0.01231610
O       0.15691244     0.59107844     2.12678207    -0.03918903     0.01072176     0.00091017
O      10.24689975    10.42171942     7.20413031    -0.02006438     0.01240403     0.04039410
O      10.14116074     4.90432431     7.12490657    -0.05117243     0.01106140     0.00676766
O       5.10956037    10.40308986     7.07567278     0.00161465    -0.04228232     0.01136351
O       4.97176960     4.89200773     7.11419208    -0.01277916    -0.00435288     0.00428577
O       7.53097982     6.10194157     6.76032686    -0.01672220     0.00425723     0.01236958
O       7.60673672     0.59125942     6.75842662     0.03930653     0.01099584     0.00117757
O       2.36860776     6.17081629     6.80149861     0.01736575     0.00316631    -0.00650824
O       2.45820639     0.58199134     6.70352983     0.00979668    -0.01161831    -0.00431586
O       7.86835153    10.42164075     2.57236358     0.02006567     0.01234310     0.04064144
O       7.97383054     4.90435208     2.49323775     0.05064252     0.01059655     0.00653523
O       2.65463966    10.40315195     2.44416669    -0.00082532    -0.04233760     0.01153243
O       2.79176152     4.89198898     2.48241269     0.01253902    -0.00433617     0.00406569
