# total energy = -39033.86425509 eV

CRYSTAL
PRIMVEC
        5.93200024     0.00000000     0.00000000
        0.00000000     9.29399984     0.00000000
        0.00000000     0.00000000     9.29399984
PRIMCOORD
46 1
Ti      4.46961198     7.07340800     6.90956499    -0.90264626    -0.05972546     0.54469175
Ti      4.46070302     6.80279400     2.31618797     0.19601172     0.46451212     0.21399634
Ti      4.44484701     2.27256398     6.95251100     0.65253311    -0.08569747     0.49766677
Ti      4.32066901     2.62541101     2.10555998     0.88204478    -0.78035632     1.31617211
Ti      1.44761199     6.91241201     7.01061498    -0.43810329     0.31189858    -0.19568133
Ti      1.51616701     6.99469098     2.17528501    -0.34046509     0.32777824     0.73770736
Ti      1.49986798     2.38505198     6.92450303    -0.58266850    -0.89807767     0.04850439
Ti      1.36963302     1.96586798     2.71892800    -0.16815689     1.57182650    -1.28749556
Ti      2.99758301     4.72910198     4.86413198     0.23996295     0.29205840    -1.59927690
Ti      2.95667501     4.88778298     8.96020298     1.01362206     0.06436862     0.86001684
Ti      2.95581298     9.26230302     4.66868301    -0.60651960    -1.16087279     0.38805572
Ti      2.93923502     9.28520100     9.26797898     0.57094915    -0.56033589     0.21871740
Ti      0.03406298     4.63717802     4.65195498    -0.00249474     0.05858724    -1.09425163
Ti      0.04069902     4.69224701     0.00087801    -0.66936793     0.50026230    -0.18053059
Ti      5.86515701     9.03362299     4.84700998     0.86148623     0.47937362    -1.64343484
Ti      5.92417001     0.07659698     9.27826502    -0.87654981    -0.95066138     0.63206172
O       4.55856599     5.70997101     5.58316099    -0.48813157    -1.14440975    -0.92200179
O       4.44438599     5.87323400     0.63147102    -0.08092267    -1.86081115     0.66678166
O       4.50064600     0.78880801     5.64924798    -0.34639766     0.95672584    -0.24801796
O       4.39325398     0.82388199     0.92182201     0.45977101     1.61245998    -0.02513203
O       1.47936702     5.58564902     5.54131699    -0.19123821     0.37536989     0.00727982
O       1.50359403     5.76527099     0.67985899     0.18913350    -0.90640110     0.33463023
O       1.46800701     0.74228799     5.75024601     0.31990963     1.32221112    -1.21556326
O       1.45148203     0.70948302     1.07464702     0.12417842     1.08631360    -0.08289445
O       4.45901102     8.43536302     8.29407497     0.04815549     0.32937386     0.79757038
O       4.45926402     8.11942902     3.96002101    -0.10060139     1.32591788    -0.67008270
O       4.45717901     3.95544299     8.28045300     0.14817479    -1.71766853     0.55218472
O       4.40248198     3.92381999     3.77377199    -0.08203776    -1.51373446    -1.04506846
O       1.53721901     8.23199402     8.25298600    -0.17678115     2.37561150     2.35607728
O       1.45753698     8.20368499     3.91204601     0.43221520     1.21502564    -0.93564638
O       1.54434300     3.83001200     8.32786998    -0.50937275    -0.48709387     0.36252697
O       1.56461298     3.78981501     3.90322500    -0.08592141    -1.79406169    -0.78425103
O       2.95398901     6.05465400     7.56068600     1.14774885    -1.55675778     1.67598836
O       2.94204898     5.95007699     3.10509299    -0.06611980     0.54736390     0.01627715
O       2.95989299     1.46852503     7.89802401     0.03754352    -0.03048610     0.38908184
O       3.10771897     1.48476600     3.14860898    -0.17781962    -0.33806831     0.85176900
O       5.90093701     6.01413998     7.84385901     0.42991046     0.12863362    -0.09740705
O       0.03375003     5.93187001     3.09767498     0.02034386     0.32183024    -0.27784122
O       0.07731698     1.52886399     7.97976702    -0.39778297     0.00542529    -0.02359477
O       2.97870202     7.92223800     6.11319201    -0.04808993     0.32592036    -0.71764504
O       3.00664501     7.87767201     1.39544401    -0.39548338     0.30571096     0.21940568
O       3.03560900     3.22628198     6.10975300    -0.16743878     0.32584477    -0.49103075
O       0.04400199     7.82890198     6.16031398     0.07241875     0.36775351    -0.34324677
O       5.87970398     7.93136202     1.43609599     0.54753051    -0.22572134     0.20212169
O       5.89116099     3.22157299     5.97830902     0.26510012    -0.72070722     0.84856077
O       0.15265203     3.17554002     1.69361099    -0.75763316    -0.20650954    -0.85775170
