# total energy = -39031.31338712 eV

CRYSTAL
PRIMVEC
        5.93200024     0.00000000     0.00000000
        0.00000000     9.29399984     0.00000000
        0.00000000     0.00000000     9.29399984
PRIMCOORD
46 1
Ti      4.47621299     7.05839598     7.10184001     0.69382787    -3.24964497    -0.82998866
Ti      4.37951500     7.03067800     2.29356702    -0.15372760    -1.09039806     1.33058726
Ti      4.58171802     2.40826302     6.78745702    -0.20606037    -0.48400032     1.25132012
Ti      4.36197399     2.32103799     2.43938800     2.18301343     0.78675760    -2.70303621
Ti      1.56728199     6.94802099     6.90514800     0.38023210    -1.13652238     0.27836830
Ti      1.37491399     7.00983598     2.36942400    -0.36049682    -0.56788105     0.22820992
Ti      1.60194500     2.21995598     7.00010600     0.24194861     0.68243248     0.60126838
Ti      1.52555800     2.46453398     2.12188901    -0.80852868     0.32424888     0.90687933
Ti      2.83329300     4.44505397     4.71606798    -2.87565474     1.85102476    -0.64680778
Ti      2.98138801     4.79920400     9.18546098    -0.85640496     0.24648558    -0.71938619
Ti      3.04647502     0.25121399     4.70020599    -0.74825326    -0.88645756     0.48072499
Ti      3.04332699     9.09069301     9.17365101    -0.04618243     1.98421103     0.82210128
Ti      5.59147802     4.70363400     4.75798299     2.28982738     1.23172162     0.28667322
Ti      5.89252002     4.57943102     0.09639498     0.44696562     1.13124544    -2.02762387
Ti      0.04825001     8.88780301     4.74028101     0.57612504     1.41212494     0.10487225
Ti      0.10910899     0.05826702     9.26294999    -0.81310448     0.66790240     0.95767201
O       4.27759102     5.55631001     5.69052502     1.26101318    -1.51427259    -0.37514312
O       4.46578597     5.79625802     0.87657698    -0.34119400    -1.38380732     0.05197847
O       4.55331501     0.77574898     5.68009600    -0.04724532    -0.05038747    -1.35501609
O       4.35936197     1.09693798     0.70499401     0.30682322    -0.91963406     1.28762540
O       1.56395500     5.51005700     5.79238799    -0.47450498    -0.94181215    -1.25152658
O       1.33077601     5.58123500     0.76145997     1.67575027     0.54174089     1.55812355
O       1.40050400     0.61655198     5.69690399     1.35208760     1.08911276    -0.78570679
O       1.57049103     0.89438602     0.79569298     0.44211652     1.47974884     0.47180738
O       4.55811502     8.48295701     8.14131399    -0.06081227     1.93611725     2.36534585
O       4.58775001     8.54614099     3.63388902    -2.12950696     0.32298930     0.12900361
O       4.37960898     3.88013800     8.41190401    -0.51018136    -1.17171539    -0.41390534
O       4.36264801     3.69149398     3.88156900     0.91018988    -1.04049910    -1.62390036
O       1.41786498     8.21368099     8.45521199     0.27754606     1.28161467    -0.08761654
O       1.44947501     8.45425698     3.62802298     1.23202244     0.23365629     0.86839453
O       1.49258301     3.87909398     7.96151099     0.75560328    -0.37190712     2.71341164
O       1.46844898     3.40440299     3.98750801    -0.23657860     0.96985570    -2.73437823
O       2.99397201     6.23988398     8.04238298     0.00651029    -0.12785124    -0.12441599
O       3.10842098     5.91027699     3.44326799    -0.80133602     1.64699170    -2.12638281
O       3.14185101     1.53251002     7.79077100    -1.46629785    -1.30678809     0.79997256
O       2.94972702     1.53679000     3.09873100    -1.34099175    -2.06062631     1.67908063
O       5.82484899     5.96653498     7.94645002    -0.05965553     1.49133063    -0.94480543
O       5.86718201     6.10144798     3.31935902     0.53253146    -0.21249867    -0.06089994
O       0.03697901     1.54998202     7.82925002     0.20431459    -0.71607461     0.69398137
O       3.06503898     7.80289302     6.03336102    -1.02620479     0.87339533    -0.46944916
O       2.84381399     7.76081798     1.49211898     0.94265084     1.37307270    -1.43468767
O       3.03367999     2.91147603     5.82409301     0.04241011     0.12144765     0.68512674
O       0.05833200     7.66893699     6.02146300    -0.51253186    -0.34911480     0.07147155
O       0.07580099     8.22515101     1.59933002    -0.76978137    -1.96426261    -0.99816407
O       0.04158100     3.21243998     5.88988599    -0.40702558    -0.18293200     0.78452923
O       5.84963200     3.50391202     1.62795602     0.29875099    -1.95014082     0.30431100
