# total energy = -19072.39452104 eV

CRYSTAL
PRIMVEC
        5.17600016     0.00000000     0.00000000
        0.00000000     5.50899976     0.00000000
        0.00000000     0.00000000     9.26300011
PRIMCOORD
22 1
Ti      1.92165300     3.30688700     3.35831298     0.95460134     0.88013753    -0.29573457
Ti      3.51461998     2.16565297     5.99507801     0.87400673     0.10051474    -2.61459357
Ti      4.37128402     2.29494802     1.35133200     1.64703310    -0.17542309    -2.37218010
Ti      0.71586601     3.21282098     8.02658201    -1.39149852    -0.11887371     2.22624835
Ti      1.84423299     0.50851298     1.30754798    -0.32913321    -0.61461293    -2.48638058
Ti      3.34986202     5.20605298     7.93637798    -0.25229036     0.38035809     2.09042566
Ti      0.68970698     0.16532699     6.16957299    -1.46245893    -0.94720684    -1.84273012
Ti      4.58556900     4.92056101     3.28059197    -1.17804468     0.10423539     1.16533777
O       3.66611199     3.31575898     4.22683101    -0.66858554     0.32326338     1.75488320
O       0.83342099     1.98567900     0.11048999     0.56113807    -0.69005401     0.91960321
O       4.35062399     3.75350498     8.91388499    -1.13185737     0.39809073    -0.27726941
O       3.45922502     0.88123999     0.26496302     0.58695633     0.12377012    -1.01565066
O       1.81278102     4.81352999     9.04355501    -1.15895141    -0.97460915    -0.58293538
O       4.43749701     0.85900099     4.84050898    -0.10432204    -0.18073371     1.14067523
O       1.10274300     4.83793702     4.01349601     0.03305823     0.30847670     4.18261304
O       0.32583899     3.70117999     2.23520099    -1.12578056    -1.83477126    -1.45386630
O       4.63103300     1.12895399     7.32624497     0.40112489     0.21051763    -0.85270128
O       2.72735600     1.97447399     2.10607899    -0.97914407     1.06600573     1.92388290
O       1.66309900     4.00067198     6.67581602     1.89687808     0.24472823    -1.46147883
O       0.10269103     0.88277402     2.30445601     0.17837549     0.88923796    -0.85150880
O       2.09076900     1.15720698     6.78851199     0.70109176     0.41998934     0.44579731
O       2.71023801     4.68342102     2.28487899     1.94780214     0.08695911     0.25756293
