# total energy = -19074.55874840 eV

CRYSTAL
PRIMVEC
        5.17600016     0.00000000     0.00000000
        0.00000000     5.50899976     0.00000000
        0.00000000     0.00000000     9.26300011
PRIMCOORD
22 1
Ti      1.75647497     3.36522102     3.30071198     0.33537713     0.97280810     0.46106633
Ti      3.64437001     2.20956998     5.86301299    -1.47482774     0.98754052     0.09988020
Ti      4.39819797     2.20524797     1.23406701     0.30022191     0.81267459    -2.24119675
Ti      0.71854402     3.32616800     8.05584297     1.52186249    -0.73226279     1.37405486
Ti      1.80869302     0.50206200     1.35482902    -0.15439275     0.26410793    -2.50017815
Ti      3.31219402     4.99449998     8.07316898    -0.76033745     0.00990929     0.99251946
Ti      0.74641203     0.22480402     6.02830198     0.35555567     1.01582087    -1.15071179
Ti      4.37332400     5.09068700     3.36766698    -0.00275571    -1.58239991     1.14456865
O       3.39126098     3.46196002     4.40523201     0.04586721    -0.63408235     1.79124504
O       0.85809700     1.91931599     0.09587199    -0.23894068    -0.08656008     0.54573947
O       4.32110500     3.58913798     8.99645601    -0.97472408     0.89315426     0.61094190
O       3.46777398     0.83677603     0.24638398    -0.43453562    -0.05654526    -0.79804038
O       1.65112399     4.79423502     9.17598500    -0.70305145    -0.39659538    -0.38901808
O       4.37128598     0.91028102     4.73249602    -0.03791633    -0.69686949    -0.14076692
O       1.02301297     4.86224800     4.29139402    -0.96506033    -0.16419302     1.79934171
O       5.17291601     3.53088101     2.37095501     0.76186931    -0.42219098     0.71805487
O       0.14060202     2.11384202     6.62947602     0.43521851    -0.35586241     0.18630298
O       2.51311298     2.09423500     2.21810000     0.97565302    -0.96904554    -0.10060756
O       2.50171402     3.45579600     7.31092000    -0.06717447    -0.72215501    -1.90135695
O       5.12898001     0.69141903     2.09076900     1.22597418    -0.06087500     0.52422525
O       2.51517598     0.63336400     6.61233099    -0.05885232     0.44159356    -0.18763172
O       2.73511199     4.67046300     2.40072499    -0.08503104     1.48202838    -0.83843191
