# total energy = -4987.35740092 eV

CRYSTAL
PRIMVEC
        3.10225638     0.00000000     0.00000000
        1.65071640     4.57189529     0.00000000
       -0.00001072    -0.00006441     4.93927236
PRIMCOORD
6 1
Ti      2.37648102     2.28591539     2.46963618     0.00000000     0.00000000     0.00000000
Ti      0.00000000     0.00000000     0.00000000     0.00000000     0.00000000     0.00000000
O       1.87282638     0.89098250     0.96259145    -1.13725977     0.72001714     0.52041127
O       2.88013565     3.68084829     3.97668097     1.13725977    -0.72001714    -0.52041127
O       0.50365013     1.39490686     3.43222861     1.13672704    -0.71993718     0.51987108
O       1.14705563     3.17692390     1.50704380    -1.13672704     0.71993718    -0.51987108
