# total energy = -19515.41508949 eV

CRYSTAL
PRIMVEC
        5.93400000     0.00000000     0.00000000
        0.00000000     9.29699974     0.00000000
        0.00000000     0.00000000     4.64899994
PRIMCOORD
23 1
Ti      4.35617500     7.05838201     2.25615700    -1.60892368     0.92305080     1.19008799
Ti      4.55676398     2.46112301     2.45918802     0.50001162    -3.93027640    -1.07104047
Ti      1.27319999     6.97813101     2.06141998     1.74084369     0.24003854     0.41530685
Ti      1.46733602     2.34009700     2.37054400    -0.13879309    -1.52925159     0.64338075
Ti      3.14152599     4.45627502     0.28551198    -3.09833061     0.56533926    -0.06278379
Ti      3.02809801     0.20567702     4.59300098     1.26105201     1.44537369     1.44564854
Ti      0.00421701     4.62094201     4.61157198     2.02123159     0.80909047    -0.20805272
Ti      0.09773502     8.98677900     4.50875400    -2.02371091     3.64353452     0.21462137
O       4.46020898     5.51768398     1.02186598     0.19220932     0.72913916    -0.22691716
O       4.54295298     1.02186402     0.85896898    -0.97322333    -0.48045708    -0.59666302
O       1.49544300     5.48187599     0.92507999     0.37960732     1.34199165     0.43954593
O       1.40440901     0.93859999     0.62352601     0.07068351     1.11289805     2.14233754
O       4.27464302     8.28683900     3.84521299     0.99651033    -1.18093152    -1.11742859
O       4.48621698     3.60719800     3.97383201    -0.35491213     0.24463927    -0.58716536
O       1.54707398     8.56677499     3.66104602    -0.14500153    -3.14259243    -1.75892266
O       1.58815200     3.78836501     3.72431900     0.06952240    -0.36370402     0.19829949
O       3.14594002     1.18787201     2.95916998    -1.51711649     1.79404138     0.75080508
O       5.74964200     6.20581798     3.28720801     0.67092936    -0.98149920     0.43095562
O       5.81345898     1.37794798     3.31927398     1.19108301     0.79768814    -1.75040125
O       2.73494101     8.07113498     1.45147800     0.45675485    -2.50085847     0.80852431
O       3.01166298     3.23518899     1.57884901    -0.59811698     0.31012786    -0.24126958
O       5.72679102     7.85436101     1.40598501     0.89703123     0.72955516    -0.66527242
O       0.07641002     3.41088399     1.59576998     0.01065851    -0.57693699    -0.39359619
