# total energy = -18977.46174631 eV

CRYSTAL
PRIMVEC
        7.60600008     0.00000000     0.00000000
        0.00000000     7.60600008     0.00000000
       -1.89786986    -1.89786986     4.85670466
PRIMCOORD
22 1
Ti      5.94542600     5.33398597     0.76889301    -6.14866976     7.56236694     1.39886524
Ti      5.53545524     2.65570625     2.48701480   -14.06898813    -1.33858314    -8.52619211
Ti     -1.17025877     4.25576124     4.15611282     2.38851844    14.65361041     0.56207910
Ti      0.72173802     3.96412700     1.51210801     6.93790308    -5.37985564    17.10353453
Ti     -1.55044775     2.49971522     4.74477880   -21.04765632    49.96111101    53.98268834
Ti      5.51089522     1.37252423     3.98066479   -56.83571710   -52.73077686    -6.74286864
Ti     -0.76003479     1.98912521     3.69472784    76.27268880    -6.34494888   -47.25355351
Ti     -0.81944378    -0.11919077     4.19785184     2.67584010    -5.76870686     0.77117645
O       4.09313200     5.03444498     1.42735202     3.44549446     2.70418061     1.60657138
O       4.97766199     6.54894498     2.26177501     0.08440343    -3.21372871    -3.01639004
O       0.09050302     5.72085302     1.52104999    -1.04981343     2.69160019    -0.30768583
O      -0.50244978     5.94124322     4.23504882     0.34872502    -8.80635298    -0.19995502
O       6.50961197     3.82963401     1.75863799     3.51995749     5.50262946     2.90640977
O       6.46336199     0.96984400     2.17191102     0.16108559    -2.50715921    -1.97257884
O       2.31586697     5.92914798     0.35415801     0.26077398     0.83618245    -0.72117491
O       2.14320702     4.53877402     0.59380800     6.72740525     1.29154042    -0.47511099
O       4.23260524     1.33364722     2.71424283    -2.49385761     2.49595794    -1.68945117
O       0.85258800     2.44218402     2.23320197     1.15621266    -0.66742392     1.45218532
O       4.63228122     4.42111421     3.96206982    -1.07664779    -2.07595497     0.94027849
O       5.64090301     3.44308199     0.87213703    -4.62246802    -0.74860782    -8.94205869
O       0.81762521     0.07785224     4.14273379     1.55585120     2.93181177     0.54879215
O       6.74455498     1.69532399     0.22619200     1.80895841    -1.04889169    -1.42556076
