# total energy = -19958.56321205 eV

CRYSTAL
PRIMVEC
        5.93400000     0.00000000     0.00000000
        0.00000000     9.29699974     0.00000000
        0.00000000     0.00000000     4.64899994
PRIMCOORD
24 1
Ti      4.42861498     7.05319200     2.43768601     1.09858342    -2.98387380    -1.66963362
Ti      4.48641902     2.22323000     2.25894100    -1.85224063    -0.00188719     1.87369701
Ti      1.54701000     6.97729899     2.27155801    -2.20132406    -0.97830512     0.93219493
Ti      1.43080300     2.58627999     2.23965899     1.86380237    -2.31399216     0.09654959
Ti      2.88094001     4.78888398     0.05463099     1.89512973    -1.72856358     0.77195447
Ti      3.10385302     9.06053901     4.56404398    -3.82847841     3.94441490     0.26223719
Ti      5.91450898     4.62017698     4.55190301    -1.95399413    -0.69745030    -0.32558920
Ti      0.02538098     9.24632398     0.21022402     2.38977057     2.16303930    -1.05973378
O       4.36830602     5.68940698     0.94916200     0.22130650    -0.07745863    -0.63081371
O       4.48182100     0.86290600     0.88148103    -0.71007288    -0.71317774    -0.48907362
O       1.36134499     5.43282401     1.02389898     0.62617235     0.55779358    -0.90280644
O       1.26664798     0.92773001     1.01813200     0.91360020    -0.53980048    -1.16053803
O       4.46091199     8.47428099     3.68506601     1.75143741    -1.78265884    -1.14298356
O       4.40411402     3.66101401     3.78739699     0.72941889     1.74083752     0.50034535
O       1.61475803     8.26496298     3.76059199    -0.53020126     0.79052684     0.64999852
O       1.45787697     3.65663999     3.73095298    -0.28008400     1.50440315     1.32053630
O       2.84812700     5.95992900     3.13969499     1.97227134     0.60416576     0.53087772
O       2.96626000     1.34674398     3.14091400     0.14529129    -0.04291250     0.37417818
O       0.18107699     6.07860001     3.28870500    -2.34429828     0.20463161     0.15211758
O       5.89448401     1.48528899     3.09285100     0.58875687    -0.86899514     1.34920257
O       2.92503302     7.87711802     1.54116201     2.15146007     1.24890200    -1.55258282
O       3.05463398     3.40397600     1.35567300    -1.16885633    -1.05660244     0.61108537
O       0.03286201     7.80170698     1.33902202    -1.14602544    -0.65280822     1.22118061
O       5.89672597     3.24279401     1.45284900    -0.33142509     1.67977200    -1.71240008
