# total energy = -4984.26685042 eV

CRYSTAL
PRIMVEC
        3.40381765     0.00000000     0.00000000
       -0.00000758     3.40381765     0.00000000
       -1.70193552    -1.70193931     4.34402834
PRIMCOORD
6 1
Ti     -0.00014989     2.55299216     1.08600697     0.00290535    -0.00290869     0.00128967
Ti      1.70202435    -0.85111391     3.25802109    -0.00290535     0.00290869    -0.00128967
O       0.00003400     0.85094863     0.70760667     0.00089346     0.00490001     2.74421424
O       1.70184036     0.85092952     3.63642143    -0.00089346    -0.00490001    -2.74421424
O      -0.00001922    -0.85093385     2.87962080     0.00489204     0.00086749     2.74613177
O       1.70189354     2.55281196     1.46440731    -0.00489204    -0.00086749    -2.74613177
