# total energy = -19519.88703972 eV

CRYSTAL
PRIMVEC
        5.17575250     0.00001323     0.00000000
        0.00001429     5.50856584     0.00000000
        0.00000000     0.00000000     9.26345890
PRIMCOORD
23 1
Ti      1.84255831     3.31468975     3.41025813     0.06298202     0.03359816     0.08699048
Ti      3.31076234     2.19447920     5.75884154     0.00830107     0.04499458     0.07652634
Ti      4.52202753     2.01206965     1.36448807    -0.02375752    -0.12798879     0.00153495
Ti      0.84471840     3.25831165     7.96113359    -0.03713137     0.04917777    -0.00682037
Ti      1.86705584     0.58695910     1.13476383     0.01982578     0.04187223     0.02597998
Ti      3.21727425     5.11084996     7.96860618     0.02444709    -0.04529591     0.03394963
Ti      0.66038012     0.53713469     5.77674618     0.06512761     0.10538904    -0.05927038
Ti      4.39615972     4.88863185     3.45171088     0.04858461     0.06362634     0.03261343
O       1.62526677     1.94060548     4.71675943    -0.07038552    -0.13931682    -0.00038181
O       3.52735670     3.58658523     4.53312614     0.00742612     0.00175606     0.01253362
O       0.86035722     1.98396102     0.08442879    -0.00188796     0.09813442    -0.01890687
O       3.56120243     0.85445410     0.09497695     0.01899763    -0.05652264    -0.08662127
O       1.69166905     4.65711475     9.18808149     0.07936973     0.04710648    -0.01200988
O       4.22260499     0.82079459     4.73661926    -0.04644442    -0.07248020    -0.03144383
O       0.94874161     4.65737648     4.57264406    -0.05363400     0.04340178     0.00188179
O       0.16656864     3.40222532     2.44997262    -0.04975755    -0.02296922    -0.04423533
O       4.98797121     2.13485937     6.78887870    -0.03731186     0.03621991    -0.05747549
O       2.76240611     2.19846016     2.09880434    -0.03800143    -0.00819539     0.08343181
O       2.52300150     3.35322841     7.17843085     0.07911724     0.01749019    -0.07904885
O       0.21920630     0.59551638     2.20346943     0.01090817     0.02179602    -0.02648186
O       4.97436872     4.84657545     7.27339222    -0.02619492    -0.09225764     0.02657647
O       2.36485203     0.65475143     6.76262287    -0.04110656     0.05167148     0.03460963
O       2.78667810     4.94442114     2.48466745     0.00052605    -0.09120760     0.00606806
