# total energy = -19515.11773710 eV

CRYSTAL
PRIMVEC
        5.17600016     0.00000000     0.00000000
        0.00000000     5.50899976     0.00000000
        0.00000000     0.00000000     9.26300011
PRIMCOORD
23 1
Ti      1.85290901     3.19524500     3.21466199     0.69009180    -0.68308657     4.22039284
Ti      3.33706799     2.19800301     5.90247702     0.02322376     0.37551130    -3.40530707
Ti      4.50728099     2.19843799     1.43308999    -0.97520694    -1.28904696    -2.29930653
Ti      0.72962499     3.40661702     7.92170998     1.36976883    -0.62476982     1.38110071
Ti      1.83757001     0.60064999     1.37726502    -0.47174207    -0.92233038    -3.02547015
Ti      3.39870698     5.14635099     7.88778199    -0.96540923    -0.06097091     3.54072198
Ti      0.78967798     0.63669601     5.80796400    -0.98392606    -0.31926788    -2.78001892
Ti      4.41715400     4.82035500     3.42852803     0.16177259     1.75619704     3.39091969
O       1.66770898     1.87761698     4.75944400    -0.32449082    -0.13649169    -0.30497383
O       3.33497298     3.50319901     4.51223901     0.79057518     1.08309406    -0.14610736
O       0.77013298     2.24459098     0.21282599     0.22951244     0.00026997    -0.35509493
O       3.42348999     0.86750699     0.06409400     1.41523983     1.17077488     0.55931979
O       1.84148698     4.83251697     8.89198399    -2.02633986    -1.45989760     1.22973596
O       4.32711799     0.82623402     4.85378800    -0.63286725    -0.60397087    -1.51940066
O       0.81611901     4.71299801     4.51286201     0.52037682    -0.55753544    -0.19817299
O       0.04292098     3.22320000     2.78461102    -0.35507462     0.46637720    -0.88414460
O       4.98785902     2.19825998     6.65716802     1.50907588     0.52052748     2.12563667
O       2.80583500     1.77679998     2.36730703    -0.03890518     1.30081207    -0.19791871
O       2.33394102     3.09687798     7.15581900     0.73152643     1.24629773     0.62023207
O       5.15728702     0.69010598     2.15639899     1.38753516    -2.16542657     0.27405707
O       5.09369902     4.88544200     7.06014502    -0.27876296    -0.41145302     1.00711228
O       2.68126598     0.54047698     6.63296002    -2.25414843     0.25126629    -1.10402825
O       2.57286799     4.72116602     2.55836499     0.47817497     1.06311993    -2.12928533
