# total energy = -19960.30962966 eV

CRYSTAL
PRIMVEC
        7.60600008     0.00000000     0.00000000
        0.00000000     7.60600008     0.00000000
       -1.89786986    -1.89786986     4.85670466
PRIMCOORD
24 1
Ti      3.75597301     6.53612799     1.28100001     0.49162262    -0.43451762    -0.08618804
Ti      3.59891098     2.87423798     1.12579100     2.99284464     1.01853647     1.16740982
Ti      0.02597498     6.54830102     1.18172101    -0.49973085    -0.62654336     0.33166317
Ti      0.02626000     2.82459999     1.15319301    -2.15074685     0.75896140     0.05750943
Ti      5.65622121     2.84816722     3.55430081     0.02923628    -0.41174535    -0.29413611
Ti      5.85907120    -1.01671180     3.74164580    -0.85720457     0.67169272    -1.05076294
Ti      1.80155320     2.97918722     3.58050784     0.58558593     1.15120518     0.95868039
Ti      1.89749822    -0.79152777     3.78625481     0.73663136    -1.87846281    -1.51419109
O       3.92985002     4.74722302     0.69834500    -0.39381345    -0.36114397     0.76135535
O       3.74057898     0.90955801     0.80532602    -0.05800642     1.53929869     0.22282654
O       0.08625499     4.64393000     0.68070102    -0.48394427     1.67675660     0.14727387
O       0.09287802     0.93308300     0.94262000     0.21955789    -0.33234503    -1.33759172
O       5.92881724     4.75977622     4.08488980    -0.60115062    -0.12225497     0.25616707
O       5.92124122     0.98554421     3.94981281    -0.47647650    -1.58532454     0.19314777
O       1.77730323     4.74502625     4.16651380     0.17432189     0.60913005    -0.17132835
O       1.61528625     1.11408724     4.02161279     0.52406944    -2.70946577     0.07213695
O       3.75553723     2.92291324     3.31934283    -0.06621210    -0.29964496    -1.42909551
O       3.86760925    -1.01871780     3.41735783    -0.68516505     0.64074537    -0.88694993
O      -0.04240075     2.97078722     3.09655582     1.39542048    -0.19242040     0.21803066
O       0.10167823    -1.06554179     3.18470580    -0.59730117     0.61361817     0.52093655
O       5.75719601     6.42666799     1.57413399    -0.00859649     0.79679108     0.98928990
O       5.74181701     2.96241198     1.61600202    -1.06777774    -0.65276965    -0.60485790
O       1.89936500     6.38012997     1.63721901     1.32477836     0.79050704     0.67092011
O       1.91328602     3.12812299     1.54056399    -0.52794281    -0.66060406     0.80775401
