# total energy = -19931.25844100 eV

CRYSTAL
PRIMVEC
        6.10276041     0.00000000     0.00000000
        1.59884546     6.29532279     0.00000000
        0.00000000     0.00000000    11.01028229
PRIMCOORD
24 1
Ti      3.15943153     3.73060264     4.08473641    -0.04926673    -1.98620750     0.80890998
Ti      4.54217452     2.56472057     6.92554650     0.04926673     1.98620750    -0.80890998
Ti      5.91460845     2.56472274     1.42036109    -0.20812728    -0.50189084    -0.11009674
Ti      1.78699762     3.73060071     9.58992194     0.20812728     0.50189084     0.11009674
Ti      2.36000893     0.58294129     1.42040523    -0.04926673    -1.98620750    -0.80890998
Ti      5.34159715     5.71238216     9.58987780     0.04926673     1.98620750     0.80890998
Ti      0.98757490     0.58293888     6.92550236     0.20812728     0.50189084    -0.11009674
Ti      6.71403117     5.71238452     4.08478055    -0.20812728    -0.50189084     0.11009674
O       2.49454288     2.21669031     5.61846303     1.76252658     1.99921960    -0.63584228
O       5.20706311     4.07863291     5.39181987    -1.76252658    -1.99921960     0.63584228
O       1.68284085     2.21671572     0.11335706    -0.69179721     0.06146713     0.96244757
O       6.01876528     4.07860761    10.89692554     0.69179721    -0.06146713    -0.96244757
O       4.40764049     0.93097137     0.11332133    -1.76252658    -1.99921960    -0.63584228
O       3.29396556     5.36435184    10.89696126     1.76252658     1.99921960     0.63584228
O       5.21934265     0.93094601     5.61849876     0.69179721    -0.06146713     0.96244757
O       2.48226334     5.36437727     5.39178415    -0.69179721     0.06146713    -0.96244757
O       1.19423584     3.82917233     2.97415210     0.46700121     1.53587013     1.61463307
O       6.50737015     2.46615089     8.03613080    -0.46700121    -1.53587013    -1.61463307
O       3.89944193     2.46609218     2.53102439     0.75385390     1.53808745     0.70019624
O       3.80216413     3.82923109     8.47925833    -0.75385390    -1.53808745    -0.70019624
O       0.39481322     0.68151079     2.53098923     0.46700121     1.53587013    -1.61463307
O       7.30679284     5.61381248     8.47929349    -0.46700121    -1.53587013     1.61463307
O       3.00274150     0.68156949     8.03616591    -0.75385390    -1.53808745     0.70019624
O       4.69886455     5.61375372     2.97411693     0.75385390     1.53808745    -0.70019624
