# total energy = -4848.51382829 eV

CRYSTAL
PRIMVEC
        5.41948620     0.00000000     0.00000000
       -0.00000670     1.80649540     0.00000000
       -2.70977759    -0.90336525     6.14797340
PRIMCOORD
6 1
Ti     -0.00023194     1.35491463     1.53699297    -0.07966643    -0.05476195   149.35900107
Ti      2.70993369    -0.45178453     4.61097953     0.07966643     0.05476195  -149.35900107
O       0.00005722     0.45160427     1.00145447     0.07896246     0.05441228  -144.39771733
O       2.70964439     0.45152578     5.14651808    -0.07896246    -0.05441228   144.39771733
O      -0.00002486    -0.45168014     4.07544102    -0.00075462    -0.00017252    -0.26618461
O       2.70972637     1.35481014     2.07253153     0.00075462     0.00017252     0.26618461
