# total energy = -19516.76116583 eV

CRYSTAL
PRIMVEC
        5.93400000     0.00000000     0.00000000
        0.00000000     9.29699974     0.00000000
        0.00000000     0.00000000     4.64899994
PRIMCOORD
23 1
Ti      4.47798600     7.03931099     2.28693500    -0.89162137     1.19674329    -0.26320059
Ti      4.41526399     2.32051098     2.30301199     1.89022124    -0.72608289     0.61196546
Ti      1.35573698     7.03697499     2.14982798     0.67125178     0.74739426    -0.73654548
Ti      1.47598600     2.28179902     2.39097898    -1.84878095     0.17925121    -0.14438292
Ti      2.98476300     4.55635699     0.21414300     1.24581873    -0.35040395    -1.15992380
Ti      2.97165898     9.26800602     4.62145399     0.78884405    -0.08838556     0.32390075
Ti      0.04131700     4.66187499     0.03546202    -0.79974425    -1.46790196    -0.25552378
Ti      0.05643998     9.27445198     4.59026402    -0.83687202     0.62710258    -0.93531188
O       4.63909899     5.57819302     1.06887200    -1.50450446    -0.28818143    -1.23487328
O       4.39192400     0.95741002     0.82975702    -0.22856190    -0.02272702     0.17841123
O       1.56626602     5.41156997     0.99560900    -0.26105166     1.96421967     0.30455165
O       1.41897303     0.82366000     0.87704901     0.74690189     0.69508797     0.16960288
O       4.42288002     8.30843002     3.77226601    -0.76951783     0.17357987    -0.37830583
O       4.52757202     3.67767801     3.89668098    -0.34769684     0.91863313    -1.18742561
O       1.40444399     8.32217201     3.46259799     0.71771986     1.67305139     2.61126965
O       1.50338003     3.60352102     3.88697502     0.57929881     1.19289049    -0.82613535
O       2.86780700     1.47468999     3.26812800     1.28756626    -0.61003379    -0.28954643
O       0.00258598     6.32515698     3.11994900     0.27156027    -2.89568724     2.20964776
O       5.85709801     1.41883502     3.19624398     0.79749710    -0.05853041    -0.33287699
O       2.94762598     7.92819299     1.41579902     0.15697542    -0.41298257    -0.66040532
O       3.10278799     3.24460099     1.37810901    -1.49922007    -0.68712706     1.26595896
O       5.82438898     8.05795799     1.33580203     0.34644162    -1.20825310     0.22872799
O       0.08362599     3.31597901     1.44372699    -0.51252569    -0.55165661     0.50042171
