# total energy = -19959.99643832 eV

CRYSTAL
PRIMVEC
        7.60600008     0.00000000     0.00000000
        0.00000000     7.60600008     0.00000000
       -1.89786986    -1.89786986     4.85670466
PRIMCOORD
24 1
Ti      3.86176899     6.45013399     1.21339798     0.87104277     1.10326258     0.59534687
Ti      3.86435899     2.70177499     1.19187899     0.39260966    -0.89235465     1.86868284
Ti      0.02501902     6.75043498     1.19315002    -0.87610476     0.19387462    -1.70813282
Ti     -0.03034599     2.95259098     1.27892299    -0.92628294    -0.71625433    -1.35473636
Ti      5.68684623     2.88573123     3.66937882    -3.58155703     0.87242731    -1.09385773
Ti      5.77785620    -0.77160679     3.68802782    -2.18374260    -0.45146840    -1.32213887
Ti      1.71828224     2.76086223     3.64261181     3.07552543     0.01606246     0.50724773
Ti      1.85042822    -0.99319680     3.58761379     2.20892091     0.06614037     1.04694871
O       3.99785300     4.54374199     0.86823498    -0.69787556     2.23753241    -0.55018414
O       3.93135299     0.78095000     0.67658698    -0.65270255     0.36087272    -0.13825084
O      -0.01863900     4.78506898     0.67722602     0.58379310    -0.27806131     2.74368614
O      -0.04659702     1.08739702     0.68869202     1.03049107     0.00925675     1.35024335
O       5.53278924     4.85632720     4.12615880     1.13135626     0.24487221    -0.54394227
O       5.41564120     1.07340023     3.98724379     1.40173023    -1.25131421     1.14856414
O       1.96351324     4.59502021     4.03402682    -0.93256697     0.43004904    -0.05196356
O       1.90823624     0.85928723     4.14772383    -0.52478652     0.39387438    -1.49566860
O       3.84742722     2.90412422     3.16943882     0.02995285    -0.14040748     0.42773351
O       3.85570022    -0.77013277     3.21039180    -1.01871439    -1.14436013    -0.90299593
O      -0.10272077     2.83327024     3.23624883     1.70454381     0.29694453    -0.18128649
O       0.02165822    -0.65500576     3.11891880     0.00503962    -0.59505119     1.12437725
O       5.73731202     6.68592198     1.59347198     0.33345292    -0.44643006     0.29633903
O       5.70804798     2.61348102     1.65746797     1.50415119     0.81558199    -0.51287871
O       1.93687499     6.76141398     1.56897700    -0.22071052    -0.95821991     0.05613980
O       2.00067001     2.78717202     1.79368402    -2.65756572    -0.16682995    -1.30927384
