# total energy = -19905.31625843 eV

CRYSTAL
PRIMVEC
        7.28745926     0.00000000     0.00000000
        0.00003389     6.34586784     0.00000000
        0.00000000     0.00000000    11.97699723
PRIMCOORD
24 1
Ti      2.64137354     3.76055528     4.44338070     0.39232735    -0.93139943     1.00845234
Ti      4.64611967     2.58531229     7.53361700    -0.39232735     0.93139943    -1.00845234
Ti      6.28497690     2.58531435     1.54507030     0.39213837     0.93150768    -1.00887606
Ti      1.00251630     3.76055343    10.43192754    -0.39213837    -0.93150768     1.00887606
Ti      2.64135687     0.58762149     1.54511832     0.39232735    -0.93139943    -1.00845234
Ti      4.64613634     5.75824628    10.43187952    -0.39232735     0.93139943     1.00845234
Ti      1.00249963     0.58761917     7.53356898    -0.39213837    -0.93150768    -1.00887606
Ti      6.28499358     5.75824854     4.44342872     0.39213837     0.93150768     1.00887606
O       2.30653882     2.23448785     6.11177019     0.92859256     1.44294374    -0.90636897
O       4.98095439     4.11137972     5.86522751    -0.92859256    -1.44294374     0.90636897
O       1.33725726     2.23451349     0.12330992    -0.92850154     1.44365619    -0.90741540
O       5.95023602     4.11135415    11.85368745     0.92850154    -1.44365619     0.90741540
O       4.98093772     0.93844573     0.12327104    -0.92859256    -1.44294374    -0.90636897
O       2.30655549     5.40742184    11.85372633     0.92859256     1.44294374     0.90636897
O       5.95021928     0.93842016     6.11180907     0.92850154    -1.44365619    -0.90741540
O       1.33727380     5.40744748     5.86518863    -0.92850154     1.44365619     0.90741540
O       0.26479073     3.85991658     3.23528587    -0.82911089     0.08529175    -0.00839003
O       7.02270248     2.48595099     8.74171183     0.82911089    -0.08529175     0.00839003
O       3.90852765     2.48589202     2.75325108    -0.82918313    -0.08520896     0.00819668
O       3.37896556     3.85997556     9.22374642     0.82918313     0.08520896    -0.00819668
O       0.26477399     0.68698259     2.75321281    -0.82911089     0.08529175     0.00839003
O       7.02271922     5.65888498     9.22378469     0.82911089    -0.08529175    -0.00839003
O       3.37894882     0.68704157     8.74175003     0.82918313     0.08520896     0.00819668
O       3.90854439     5.65882600     3.23524760    -0.82918313    -0.08520896    -0.00819668
