# total energy = -19516.81873331 eV

CRYSTAL
PRIMVEC
        5.17600016     0.00000000     0.00000000
        0.00000000     5.50899976     0.00000000
        0.00000000     0.00000000     9.26300011
PRIMCOORD
23 1
Ti      1.82999002     3.16257100     3.45182998    -0.92940709     0.19127729     1.86878517
Ti      3.37373601     2.24577200     5.74010898    -0.95652298     0.05515121    -0.22770469
Ti      4.40045798     2.04204902     1.53440198     2.41865384    -0.65183300    -2.37394362
Ti      0.84811402     3.43435501     7.68218901    -0.00873533    -0.77842645     2.69475134
Ti      2.02230198     0.26240699     1.26669899     1.92460744    -0.81218891    -0.46561821
Ti      3.13810698     5.23999700     7.71379301     1.12458243    -0.05289507     2.94619427
Ti      0.77274097     0.50391200     5.97599202    -0.76401259    -0.23003591    -2.35388181
Ti      4.41245401     4.98781801     3.37763599     1.40759029    -0.86984000     2.70475294
O       1.53426302     1.80667500     4.83099300     1.21982924     1.01564732    -1.11421162
O       3.42677301     3.62978302     4.56074302     0.59143571    -0.47353824    -0.38949065
O       0.20229197     2.85015798     0.21228501    -0.10785422    -0.47319860    -1.74150189
O       3.56765502     0.82689099     0.16425900    -0.14657273     0.68894894     0.67001173
O       2.08883401     4.55876199     9.09728301    -1.66874196    -0.30642445    -0.00744695
O       4.20927101     0.70403302     4.96944699    -0.44542965    -0.45367852    -1.17908006
O       0.93799800     4.64035499     4.43658899    -0.23097411     0.66669912     1.57624212
O       0.17336900     3.33257501     2.61284500    -0.75813633    -0.49813317     0.14755952
O       4.95970499     2.19018198     6.74414598     0.67909982    -0.09800920     0.57750007
O       2.75397298     1.87679300     2.32347501    -1.07968015    -0.31000059     0.09307423
O       2.62811002     3.62578303     6.94635598    -0.66742289    -0.77301531    -0.46649573
O       0.36547002     0.43906498     2.18174700    -0.98976350     1.72679903    -0.96455434
O       4.94487602     4.86803599     7.30140799     0.41082181     0.50286734    -0.18667939
O       2.23621998     1.12737001     7.09055001    -0.48475957     0.82100651    -0.60185973
O       2.86757802     4.48832300     2.39849398    -0.53860749     1.11282117    -1.20640267
