# total energy = -79406.60151382 eV

CRYSTAL
PRIMVEC
       10.35150501     0.00000000     0.00000000
        0.00005674    11.01713167     0.00000000
        0.00000000     0.00000000     9.26345890
PRIMCOORD
95 1
Ti      7.01991201     8.82444989     3.48161958     0.00187433     0.00091686     0.00831726
Ti      7.15526672     3.22098125     3.41505189     0.00712761    -0.00856101    -0.00582535
Ti      1.84590728     8.81637082     3.43969588    -0.00041678    -0.00789817    -0.00166659
Ti      1.77142832     3.13587852     3.51351675     0.00078547    -0.02364105     0.00801490
Ti      8.48737324     7.73365750     5.80751398    -0.00070474     0.00765829     0.00173704
Ti      8.49180369     2.22704330     5.84806578    -0.00144445     0.00246029     0.01017489
Ti      3.28837498     7.69181910     5.79246088    -0.00227106     0.00809769     0.00387157
Ti      3.33706863     2.17288755     5.84796744    -0.00165965    -0.00221861     0.00210188
Ti      9.52895774     7.76544510     1.19447513    -0.00065897     0.00916521    -0.00873995
Ti      9.67637298     2.19574692     1.14936624    -0.00243046     0.01626712     0.00234793
Ti      4.45031511     7.69315694     1.21834535     0.01038649     0.00322005    -0.00980671
Ti      4.46708958     2.21740170     1.21293392     0.00420041     0.00654783    -0.00673166
Ti      5.89433860     8.81591728     8.11104386    -0.00872813     0.00450740     0.00311824
Ti      5.91678452     3.30932907     8.11168901    -0.00225409    -0.00419193    -0.00635063
Ti      0.68406068     8.90506649     7.94344536    -0.00044917    -0.00744026     0.00768632
Ti      0.73439682     3.30965566     8.05667347    -0.00090914    -0.00168330     0.00103256
Ti      7.01961273     6.03117361     1.19838735     0.00315012     0.00786064     0.00637582
Ti      7.02847796     0.55066777     1.22010748    -0.00500003     0.00231091     0.00444570
Ti      1.74214986     6.28785159     0.95039764    -0.01023582     0.01041734    -0.00446447
Ti      1.88217069     0.52635974     1.15132382    -0.00232505    -0.00869367     0.00558624
Ti      8.41832413    10.47654990     8.11226543    -0.01175740     0.00617862     0.00153084
Ti      8.51237748     4.96003003     8.08585011    -0.00036201     0.00237801     0.00792569
Ti      3.32928790    10.45795211     8.08070763    -0.00027948     0.01013246    -0.00149253
Ti      3.30337140     4.94692363     8.07366823     0.00657663     0.00133389    -0.00124647
Ti      5.89833550     6.14946598     5.96688321     0.00320797    -0.00486813     0.00375715
Ti      5.90467785     0.55210750     5.82055751     0.00875461    -0.01708782     0.01021937
Ti      0.72814312     6.04017234     5.79043749    -0.00046691     0.00184837     0.01056698
Ti      0.68664136     0.50044686     5.83892497     0.00090426     0.00168459    -0.01059578
Ti      9.63168757    10.49034671     3.42142133     0.00723329     0.00570914     0.00083047
Ti      9.65661791     4.99518614     3.38725397     0.00507562    -0.00698235     0.00919118
Ti      4.43451157    10.45488411     3.44746381    -0.00987047     0.00619045     0.00299225
Ti      4.74591390     4.90073673     3.63601005     0.01843507    -0.01391070     0.01607711
O       6.81407251     7.44755646     4.74383557    -0.00460536    -0.00501622    -0.00609275
O       6.83885995     1.91712742     4.72439291    -0.00207745    -0.00461899    -0.00114620
O       1.63938156     7.43792309     4.72578753     0.00585415    -0.00323419    -0.00501211
O       1.60571458     1.86703914     4.72478507    -0.00776936    -0.00463416    -0.00604415
O       8.71540830     9.07955098     4.53852164     0.00753128     0.00307144     0.00669695
O       8.75213119     3.55554805     4.53363961    -0.00009950     0.00259887     0.00295471
O       3.52695359     9.07829096     4.53215603    -0.00160283    -0.00522371    -0.00027382
O       3.44351490     3.65304792     4.36223560    -0.01187284    -0.00285830    -0.00538029
O       6.09754233     7.41911291     0.12112600    -0.00061038     0.00619173     0.00154241
O       6.13190922     1.92502725     0.09608102     0.00060138     0.00498794     0.00274491
O       0.89883602     7.48291764    -0.02871705     0.00166016    -0.02296690     0.02798313
O       0.95430989     1.92898896     0.07894564     0.00277834     0.00984244    -0.00298582
O       9.37752893     9.10540438     9.16268726     0.00203169     0.00005476    -0.00340928
O       9.41627476     3.57803946     9.16165821    -0.00510956     0.00244435    -0.00078084
O       4.19792278     9.06738894     9.19613940    -0.00401478    -0.00237004    -0.01260098
O       4.24230935     3.57735962     9.19355979    -0.00405515    -0.00688027    -0.00951129
O       8.70037792     6.33697278     0.10169588     0.00298994     0.00061192     0.00311258
O       8.70639114     0.82049728     0.08962754    -0.00052193     0.00910634     0.00773594
O       3.53420072     6.31254060     0.10187306    -0.00033681     0.00421327     0.00374353
O       3.54058983     0.81763233     0.11203176     0.00393507    -0.00323393     0.00189336
O       6.79733160    10.18617037     9.19364171     0.00010464    -0.00581378    -0.00966581
O       6.82651550     4.67159776     9.18425487    -0.00072839     0.00162777     0.00358181
O       1.61595875    10.21490423     9.15421642     0.00455574    -0.00290406    -0.00224972
O       1.66077732     4.67413073     9.20618363    -0.00413151     0.00786346    -0.00199466
O       9.40931788     6.31474196     4.71193968     0.00414899    -0.00308070     0.00332238
O       9.41210470     0.80403326     4.73952196     0.00957299     0.00041883    -0.00079447
O       4.24810793     6.32757761     4.75181190     0.00464753    -0.01430485    -0.00484422
O       4.22433065     0.84392712     4.70581944    -0.00539495    -0.00606549     0.00029311
O       6.11691002    10.19658451     4.54760080    -0.01068834     0.00762615     0.00440507
O       6.20631620     4.67647203     4.62578464    -0.02073621    -0.00519594    -0.00700472
O       0.94326062    10.16346568     4.55234575    -0.00153418    -0.00544868    -0.01114239
O       1.00389775     4.71315237     4.45240048    -0.00850753     0.00442847     0.00030673
O       5.34834801     8.84452293     2.51422594    -0.00179309    -0.01050836    -0.01048136
O       5.42384584     3.33955266     2.52793000    -0.00307530     0.00561529     0.00826353
O       0.18441187     8.86597314     2.47798894     0.00756650     0.00673681     0.00097342
O       0.17523588     3.37287022     2.46437649     0.00535278     0.00919530    -0.00042655
O      10.17077849     7.66925803     6.73140923    -0.00005528     0.01256961    -0.00920044
O      10.17364896     2.14377679     6.77197081     0.00136320     0.00299842    -0.01670369
O       4.97295419     7.66083118     6.79495328    -0.00061835     0.00506276    -0.00296371
O       4.97791098     2.18387829     6.74301541    -0.00121099     0.00300793     0.00366974
O       7.92666646     7.66428823     2.14148251    -0.00157429    -0.00153366    -0.00311335
O       7.97965748     2.11640156     2.13723912     0.00556336     0.00152826    -0.00802442
O       2.74061497     7.53023063     2.15607468    -0.00510107     0.00363426    -0.00020723
O       2.77427212     2.25377752     2.11879114     0.01180008     0.00378955    -0.00048388
O       7.54457413     8.85074002     7.13681333     0.00151592     0.01106680     0.00451692
O       7.58746876     3.36259377     7.13398254    -0.00657277    -0.00169693    -0.00226617
O       2.38207988     8.89765651     7.10696838     0.00069985     0.00011544    -0.01137097
O       2.41160954     3.36723764     7.10676653     0.00102099     0.00070551     0.00025223
O       5.33620731     6.05224836     2.16174468    -0.00132438    -0.00963058     0.00272254
O       5.36269657     0.58948096     2.13927039     0.00021649    -0.00187973    -0.00141205
O       0.20922552     6.13888405     2.09098834     0.01129975     0.00402712    -0.01282364
O       0.20992235     0.61726015     2.14758374     0.00152621    -0.00718238     0.00569371
O      10.12285712    10.41467986     7.11660666     0.00122693    -0.00031933    -0.00518720
O      10.18036395     4.90170795     7.11787603    -0.00482828     0.00318071     0.00108141
O       4.98472997    10.42112050     7.14238494    -0.00294597    -0.00129121     0.00642313
O       4.99988579     4.91352088     7.15512214    -0.01170341    -0.00187331     0.00737007
O       7.58752324     6.11558443     6.79380134     0.00116985     0.00180440     0.00285444
O       7.55984415     0.60535858     6.77657312     0.00282282     0.00206588     0.00400578
O       2.39270254     6.11224262     6.77258576     0.00281999     0.00204197     0.00148121
O       2.41636019     0.64314091     6.75412790     0.00965424    -0.00456217    -0.00877801
O       7.95468773    10.41291934     2.50732627    -0.00968818    -0.00171647    -0.01426474
O       7.96776708     4.89994055     2.49672975     0.00302568     0.00196895     0.01099893
O       2.76934322    10.39808599     2.48395815     0.01034304    -0.00786681    -0.00296345
