# total energy = -19910.47348399 eV

CRYSTAL
PRIMVEC
        4.82822006     0.00000000     0.00000000
        2.41822585     4.53412437     0.00000000
        0.00000000     0.00000000     8.94232585
PRIMCOORD
24 1
Ti      3.18303597     2.68691791     3.31753913     6.67684834    -5.72570103     1.27441583
Ti      4.06341007     1.84720658     5.62478682    -6.67684834     5.72570103    -1.27441583
Ti      5.14921639     1.84720820     1.15358812   -13.99633027     4.51599191     2.95197874
Ti      2.09722981     2.68691650     7.78873788    13.99633027    -4.51599191    -2.95197874
Ti      1.97392323     0.41985587     1.15362399     6.67758213    -5.72541640    -1.27465495
Ti      5.27252290     4.11426879     7.78870205    -6.67758213     5.72541640     1.27465495
Ti      0.88811683     0.41985413     5.62475095    13.99686403    -4.51575126     2.95262537
Ti      6.35832929     4.11427049     3.31757495   -13.99686403     4.51575126    -2.95262537
O       2.37966061     1.59654231     4.56320045    -2.44874887    -0.46170345    -1.58688186
O       4.86678549     2.93758222     4.37912550     2.44874887     0.46170345     1.58688186
O       1.73748435     1.59656056     0.09206626     2.92673075     0.96801684    -3.92303411
O       5.50896181     2.93756400     8.85025940    -2.92673075    -0.96801684     3.92303411
O       3.65767265     0.67052001     0.09203724     2.44901292     0.46188163    -1.58658824
O       3.58877343     3.86360447     8.85028842    -2.44901292    -0.46188163     1.58658824
O       4.29984897     0.67050179     4.56322943    -2.92625998    -0.96874292    -3.92345731
O       2.94659708     3.86362274     4.37909647     2.92625998     0.96874292     3.92345731
O       1.64632243     2.75791144     2.41554530     0.15930047    -6.40117199    -5.39168195
O       5.60012367     1.77621309     6.52678060    -0.15930047     6.40117199     5.39168195
O       3.53684141     1.77617074     2.05564607     3.06145866    -4.35192642    -6.28535197
O       3.70960469     2.75795379     6.88667969    -3.06145866     4.35192642     6.28535197
O       0.43720960     0.49084923     2.05561753     0.15952853    -6.40049244     5.39168529
O       6.80923649     4.04327525     6.88670823    -0.15952853     6.40049244    -5.39168529
O       2.50049186     0.49089158     6.52680909    -3.06111105     4.35178938    -6.28516942
O       4.74595423     4.04323290     2.41551676     3.06111105    -4.35178938     6.28516942
