# total energy = -4984.85557047 eV

CRYSTAL
PRIMVEC
        2.68831958     0.00000000     0.00000000
        0.42016867     4.19118532     0.00000000
       -0.00000280    -0.00005466     4.21748194
PRIMCOORD
6 1
Ti      1.55424277     2.09556533     2.10874097     0.00000000     0.00000000     0.00000000
Ti      0.00000000     0.00000000     0.00000000     0.00000000     0.00000000     0.00000000
O       1.42604393     0.81678967     0.82192510    -2.34929188     1.81839796     1.88761568
O       1.68244167     3.37434098     3.39555679     2.34929188    -1.81839796    -1.88761568
O       0.12819770     1.27875350     2.93066693     2.34915998    -1.81773641     1.88691017
O       0.29196836     2.91237706     1.28681496    -2.34915998     1.81773641    -1.88691017
