# total energy = -4989.42163661 eV

CRYSTAL
PRIMVEC
        3.09415095     0.00000000     0.00000000
        0.72314341     4.79383487     0.00000000
       -0.00000454    -0.00006293     4.86184041
PRIMCOORD
6 1
Ti      1.90864463     2.39688588     2.43092015     0.00000000     0.00000000     0.00000000
Ti      0.00000000     0.00000000     0.00000000     0.00000000     0.00000000     0.00000000
O       1.68800445     0.93423549     0.94750105    -0.09006552    -0.17961271    -0.25213121
O       2.12928481     3.85953627     3.91433919     0.09006552     0.17961271     0.25213121
O       0.22063820     1.46262490     3.37842224     0.09030438     0.17937539    -0.25190753
O       0.50250022     3.33114697     1.48341801    -0.09030438    -0.17937539     0.25190753
