# total energy = -19961.66537175 eV

CRYSTAL
PRIMVEC
        7.60600008     0.00000000     0.00000000
        0.00000000     7.60600008     0.00000000
       -1.89786986    -1.89786986     4.85670466
PRIMCOORD
24 1
Ti      3.80642900     6.52779398     1.21635100    -1.01231825     1.06644591     0.41750051
Ti      3.81400899     2.86265202     1.22918900    -0.68842727    -0.65398270    -0.47486622
Ti     -0.00672500     6.71518601     1.20925199     0.98933541     0.33142740     0.18356192
Ti     -0.02470501     2.92624499     1.21137102     0.55880968    -0.73718132     0.21840707
Ti      5.70651522     2.87106424     3.66244982     0.67336831    -0.19406565    -0.37992794
Ti      5.75028924    -0.96071876     3.61311479    -0.53233399     0.35031216     0.17128824
Ti      1.92021321     2.84359624     3.64108784    -0.68362239    -0.42357243    -0.61991583
Ti      1.90807722    -1.02607675     3.69460179     0.28673622     0.50916423    -0.33494390
O       3.61208501     4.70271699     0.73028403     0.66095168     0.32724113     0.80192763
O       3.67436197     0.83621298     0.76644699     0.60580741     1.20506930     0.50557189
O       0.04499700     4.81204300     0.76201699    -0.24316551     0.05688414    -0.30277862
O      -0.02853699     1.01143701     0.79813900     0.08635927    -0.78792154    -0.52664054
O       5.82323421     4.79612022     3.90549284    -0.00497663    -0.37097176     1.18173216
O       5.72975521     0.95352322     4.00109982    -0.30496252     0.38441452     0.35740096
O       1.79733121     4.69788724     4.06921880     0.21532277    -0.14059106    -0.18673903
O       1.78941822     0.91431124     4.16634383     0.87093889    -0.25082638    -0.68022442
O       3.83515322     3.03336523     3.25813179    -0.16716111    -0.88749578     0.04290941
O       3.80631423    -1.05146980     3.22756979     0.05714073     0.06695541     0.18840074
O       0.01839822     2.63965021     3.16595281    -0.79061374     0.79800335    -0.09360207
O       0.04237122    -0.99793976     3.15439183    -0.71512381     0.29823985    -0.20645812
O       5.67354102     6.64614299     1.58960200     0.82797960     0.00519517     0.02754295
O       5.69564799     2.97130697     1.57286798    -0.19413816    -0.14491463     0.22282731
O       1.93309799     6.70102200     1.63886401    -0.87322795    -0.21711226     0.02042022
O       1.88325801     3.00624802     1.71086402     0.37732084    -0.59071708    -0.53339380
