# total energy = -19960.70885118 eV

CRYSTAL
PRIMVEC
        5.93400000     0.00000000     0.00000000
        0.00000000     9.29699974     0.00000000
        0.00000000     0.00000000     4.64899994
PRIMCOORD
24 1
Ti      4.42944399     6.95623699     2.31745699     0.49038849     0.97504701    -0.29977069
Ti      4.46750601     2.32698102     2.34289698    -0.97761015    -1.04928070    -0.27409255
Ti      1.47304298     6.99877898     2.36508898    -0.30796582     0.07192664    -1.01865782
Ti      1.47430401     2.39819399     2.34947698     1.11252395    -1.20408225    -0.31407837
Ti      2.96166701     4.68276299     4.58533003     0.24388439    -1.09554849     0.99687080
Ti      2.94417002     9.21821398     4.64239602     1.40925173     2.41254824     0.00804344
Ti      5.92736602     4.68040402     4.61177502    -0.30569425    -0.76454660     0.59974732
Ti      0.04470902     0.01132699     0.02379599    -1.53634629     2.00915254     0.79972779
O       4.42606900     5.63008102     0.75399699     0.49566748     0.18682311     0.70663120
O       4.40538399     0.87807598     0.84515502     0.47959911     0.61123270     0.74321955
O       1.53219902     5.57563598     0.92290301    -0.47141991     0.24089497    -0.41206186
O       1.53754397     0.89021002     0.93524602    -0.61969677     0.22556014    -0.27597846
O       4.50160799     8.40345300     3.77752402    -0.53166499    -1.35995210    -1.21488629
O       4.48233700     3.66207998     3.80514601     0.18413142     0.52978320     0.24843731
O       1.42440799     8.40054702     3.89883499     0.59236979    -2.57664716    -2.60785188
O       1.54149502     3.66914598     3.84927098    -0.76634381     0.72842131    -0.15476658
O       2.98205800     5.95933098     3.08943098    -0.62211284     0.64313958     0.34780431
O       2.89039302     1.40329599     3.20607302     0.77102116    -0.23377019     0.19197432
O       5.86911398     5.95141401     3.14638802     0.75043459     0.64762745    -0.05989207
O       0.07580200     1.40160802     3.17326800    -0.58229055    -0.44898420     0.68203782
O       2.93389102     7.96264200     1.43490602    -0.30594468    -1.62041111     1.42688102
O       3.03576902     3.24650899     1.45314200    -0.15679518     0.52799963    -0.20180725
O       5.87034998     7.85903799     1.38902001     0.81160835    -0.61619955     1.15744757
O       5.92575198     3.23104902     1.50554298    -0.15699522     1.15926585    -1.07497863
