# total energy = -19519.91362294 eV

CRYSTAL
PRIMVEC
        5.17575250     0.00001323     0.00000000
        0.00001429     5.50856584     0.00000000
        0.00000000     0.00000000     9.26345890
PRIMCOORD
23 1
Ti      1.83289896     3.34712616     3.42048902    -0.02585271     0.00269683    -0.07856934
Ti      3.32283320     2.18426004     5.76727875     0.03695756    -0.05370162    -0.03041462
Ti      4.51714564     1.96289274     1.38964780     0.09461792     0.12324870     0.03264557
Ti      0.87282877     3.28600250     7.94476742     0.02424268    -0.02682330     0.03895968
Ti      1.88439160     0.61458235     1.13160938     0.01925680    -0.04028097     0.07522639
Ti      3.21622660     5.12152761     7.95069285    -0.07573830     0.08069976    -0.00786809
Ti      0.67348405     0.60225657     5.73045452     0.00050651     0.03585225    -0.03214292
Ti      4.39503277     4.86967465     3.45891599     0.02286123     0.00079370     0.00552427
O       1.60391296     1.90275798     4.70270692     0.05467864     0.15557340    -0.08326341
O       3.51881933     3.57998802     4.54133763    -0.04834010    -0.05201395    -0.02433524
O       0.84458353     2.02189715     0.08760050    -0.08590007     0.01725005     0.07454814
O       3.57653065     0.85855495     0.08151807     0.02056780     0.07646721     0.11176744
O       1.72976576     4.66442773     9.17600835    -0.03725427    -0.05183603    -0.03648577
O       4.18980438     0.80008888     4.73843045    -0.06140465    -0.03867378     0.01062123
O       0.93282503     4.64807426     4.57768252     0.03748978    -0.07799393    -0.03136644
O       0.15669480     3.39353688     2.43879477     0.01169775    -0.05043221     0.03142532
O       4.97856184     2.14121243     6.77249095     0.06310672    -0.04239288     0.06367057
O       2.75830769     2.17937758     2.11782693     0.08664492    -0.08306826    -0.05485708
O       2.54651259     3.36580993     7.16450045    -0.08550721     0.05703223     0.04291533
O       0.23944942     0.58377091     2.22050964    -0.02623940    -0.01044023    -0.08605923
O       4.96771201     4.79964123     7.31009293    -0.00444235    -0.00319537     0.04838561
O       2.33834466     0.68929568     6.79198330     0.01200526    -0.00217104    -0.00072042
O       2.78652164     4.91729893     2.47808383    -0.03395477    -0.01658979    -0.06960724
