# total energy = -19517.98010127 eV

CRYSTAL
PRIMVEC
        5.93400000     0.00000000     0.00000000
        0.00000000     9.29699974     0.00000000
        0.00000000     0.00000000     4.64899994
PRIMCOORD
23 1
Ti      4.47174398     6.96580801     2.29273701     0.93193037     1.02822979    -0.30021677
Ti      4.49071102     2.38161201     2.34872798     0.53265101    -0.52566506    -0.46437534
Ti      1.45508001     7.02517900     2.27136798    -0.83116803     0.39243045    -0.71937591
Ti      1.53179499     2.29442699     2.36300201    -0.82873910     0.32742214    -0.16062562
Ti      2.98724601     4.60282399     0.20564003    -0.70630673     0.33710517     0.18742758
Ti      2.94804498     0.07405301     4.54924897     0.93978843    -1.22458449     0.57725581
Ti      5.91840102     4.53056600     4.62658199     0.58311279     0.68112302    -0.15126577
Ti      0.01697500     0.08485701     4.60196900    -1.00917019    -0.65227034     0.28553474
O       4.49602898     5.47927598     0.93102900    -0.78453822     0.68652311    -0.05245001
O       4.40798500     0.94237202     0.90774801    -0.05778839    -0.04769732    -0.11612443
O       1.44571500     5.49810300     0.95426698     0.25636042     0.27672382    -0.43616467
O       1.53040701     0.92036502     0.91441802    -0.13023517     0.16262362     0.04101580
O       4.51602998     8.45155500     3.61641400    -0.80564905    -0.19341311     0.42241364
O       4.35712900     3.65192502     3.82844997     0.29001335     0.43618241    -0.45378188
O       1.39080900     8.45292901     3.66699498     0.89657897    -0.49997305    -0.18111166
O       1.40887998     3.57601100     3.86774901     0.78519848     0.66402466    -0.59313598
O       2.97347501     1.44950401     3.23840200     0.03049021    -0.30449483    -0.08013334
O       5.87715203     6.09287198     3.18476999     0.29526740    -1.00012505     0.76394934
O       0.01619801     1.39799099     3.19167998    -0.11520346     0.33443225     0.05603696
O       2.92894200     7.71020302     1.22146900    -0.02999013     0.14556203     1.07570008
O       2.98736502     3.35868203     1.50216398    -0.26700531    -1.18647842     0.80517314
O       5.91037801     7.81220897     1.39775101     0.09024498     0.87380105    -0.85093647
O       5.92829500     3.31285898     1.46981400    -0.06584238    -0.71148236     0.34519078
