# total energy = -19950.87478814 eV

CRYSTAL
PRIMVEC
        6.30924225     0.00000000     0.00000000
        0.00002666     4.96321782     0.00000000
        0.00000000     0.00000000    10.04528560
PRIMCOORD
24 1
Ti      2.28681267     2.94119832     3.72672931     0.25658616     0.13860565    -0.24160305
Ti      4.02245629     2.02201966     6.31855634    -0.25658616    -0.13860565     0.24160305
Ti      5.44132483     2.02202139     1.29587338     0.25763877    -0.13809889     0.24136008
Ti      0.86794413     2.94119682     8.74941238    -0.25763877     0.13809889    -0.24136008
Ti      2.28679946     0.45958952     1.29591366     0.25660827     0.13535783     0.24144262
Ti      4.02246950     4.50362863     8.74937211    -0.25660827    -0.13535783    -0.24144262
Ti      0.86793091     0.45958763     6.31851607    -0.25742383     0.13525833     0.24186376
Ti      5.44133805     4.50363052     3.72676959     0.25742383    -0.13525833    -0.24186376
O       1.99692443     1.74763340     5.12603235     0.90630932     0.39580862    -0.06540812
O       4.31234459     3.21558459     4.91925330    -0.90630932    -0.39580862     0.06540812
O       1.15775242     1.74765342     0.10342186    -0.90590719     0.39540625    -0.06554027
O       5.15151665     3.21556462     9.94186351     0.90590719    -0.39540625     0.06554027
O       4.31233137     0.73397562     0.10338927    -0.90633168    -0.39552143    -0.06519214
O       1.99693764     4.22924236     9.94189610     0.90633168     0.39552143     0.06519214
O       5.15150344     0.73395566     5.12606494     0.90585783    -0.39547901    -0.06549039
O       1.15776552     4.22926239     4.91922071    -0.90585783     0.39547901     0.06549039
O       0.22924559     3.01891042     2.71348225    -0.62863136     0.03585122     0.35215873
O       6.08002343     1.94430757     7.33180340     0.62863136    -0.03585122    -0.35215873
O       3.38387351     1.94426128     2.30919252    -0.62846861    -0.03578566    -0.35208854
O       2.92539550     3.01895677     7.73609296     0.62846861     0.03578566     0.35208854
O       0.22923237     0.53730151     2.30916044    -0.62859048     0.03558074    -0.35192528
O       6.08003664     4.42591653     7.73612505     0.62859048    -0.03558074     0.35192528
O       2.92538229     0.53734780     7.33183543     0.62874037     0.03547224    -0.35238165
O       3.38388673     4.42587018     2.71345016    -0.62874037    -0.03547224     0.35238165
