# total energy = -4988.30401587 eV

CRYSTAL
PRIMVEC
        3.19828103     0.00000000     0.00000000
        0.74747997     4.95516585     0.00000000
       -0.00000469    -0.00006505     5.02546004
PRIMCOORD
6 1
Ti      1.97287786     2.47755031     2.51272996     0.00000000     0.00000000     0.00000000
Ti      0.00000000     0.00000000     0.00000000     0.00000000     0.00000000     0.00000000
O       1.74481229     0.96567610     0.97938811     0.32707453    -0.44843244    -0.54531601
O       2.20094343     3.98942451     4.04607176    -0.32707453     0.44843244     0.54531601
O       0.22806353     1.51184785     3.49211914    -0.32765739     0.44833217    -0.54487533
O       0.51941129     3.44325287     1.53334073     0.32765739    -0.44833217     0.54487533
