# total energy = -19960.99644543 eV

CRYSTAL
PRIMVEC
        5.51605839     0.00000000     0.00000000
        0.00002745     5.31163461     0.00000000
        0.00000000     0.00000000     9.42597563
PRIMCOORD
24 1
Ti      1.99932216     3.14766970     3.49696981    -0.06583543     0.18073062    -0.37988680
Ti      3.51676369     2.16396480     5.92900614     0.06583543    -0.18073062     0.37988680
Ti      4.75725522     2.16396663     1.21598051    -0.06432003    -0.18074656     0.38690078
Ti      0.75883068     3.14766814     8.20999560     0.06432003     0.18074656    -0.38690078
Ti      1.99930849     0.49185250     1.21601832    -0.06591000     0.16400045     0.38680744
Ti      3.51677741     4.81978216     8.20995779     0.06591000    -0.16400045    -0.38680744
Ti      0.75881695     0.49185057     5.92896838     0.06435602     0.16330291     0.38044139
Ti      4.75726889     4.81978415     3.49700763    -0.06435602    -0.16330291    -0.38044139
O       1.74587699     1.87031678     4.81000334     0.45032554     0.07468029     0.19445415
O       3.77020891     3.44131772     4.61597262    -0.45032554    -0.07468029    -0.19445415
O       1.01220386     1.87033826     0.09704571    -0.45159773     0.07530378     0.19389776
O       4.50388209     3.44129630     9.32893003     0.45159773    -0.07530378    -0.19389776
O       3.77019518     0.78550037     0.09701515    -0.45133496    -0.07587611     0.19432533
O       1.74589072     4.52613413     9.32896059     0.45133496     0.07587611    -0.19432533
O       4.50386836     0.78547894     4.81003395     0.45021190    -0.07503562     0.19439630
O       1.01221743     4.52615561     4.61594205    -0.45021190     0.07503562    -0.19439630
O       0.20042795     3.23083729     2.54619124     0.19025965    -0.13508452     0.19879211
O       5.31565795     2.08079727     6.87978471    -0.19025965     0.13508452    -0.19879211
O       2.95846203     2.08074783     2.16682671     0.18919547     0.13617236    -0.20074512
O       2.55762381     3.23088672     7.25914913    -0.18919547    -0.13617236     0.20074512
O       0.20041422     0.57501993     2.16679658     0.18897564    -0.13617133    -0.20061965
O       5.31567162     4.73661462     7.25917921    -0.18897564     0.13617133     0.20061965
O       2.55761014     0.57506937     6.87981479    -0.19039129    -0.13519560    -0.19917547
O       2.95847576     4.73656513     2.54616116     0.19039129     0.13519560     0.19917547
