# total energy = -19075.19085757 eV

CRYSTAL
PRIMVEC
        7.60600008     0.00000000     0.00000000
        0.00000000     7.60600008     0.00000000
       -1.89786986    -1.89786986     4.85670466
PRIMCOORD
22 1
Ti      3.68888302     6.58733102     1.30364900     0.30213919     1.44657902    -1.68809929
Ti      3.79430000     2.84724698     1.26323500     2.09783147    -1.54777974     1.28219959
Ti      0.11076198     6.78025402     1.10673601    -0.23792303    -0.10699418    -0.73331103
Ti      0.20406800     2.88460102     0.94928398    -2.04744117    -0.36337749     1.17243890
Ti      5.80838322     2.87854723     3.49886182    -0.21086550     0.23571111    -1.34684949
Ti      6.05333921    -0.92713077     3.57353783    -1.10729715    -0.25215975    -0.02032381
Ti      1.90594320     2.73741222     3.74200480    -0.10827948     0.73036352    -0.47994209
Ti      1.15062523    -0.90187779     4.01212682     2.37454192    -1.34993096    -0.84930382
O       3.76271600     4.62701099     0.86607398    -0.31059221     2.76189110    -0.35509365
O       3.99168999     0.89976500     0.90239300    -0.98145189    -1.53235851     0.88732017
O       0.22821198     4.76287302     0.54009301     0.45013837     0.15977715     0.55707007
O      -0.16536498     1.02262302     0.76151998     0.93841546    -0.91818447    -0.35121874
O       5.71856824     4.85901621     3.95252283     0.30473497    -0.71479368    -0.33475004
O       5.52021223     0.86900620     3.84485680     0.89149667     1.16599340     0.03285254
O       1.77367022     4.75755124     4.15323182    -0.76828525    -0.30084746     0.97847764
O       1.89344621     0.84394024     4.18744483    -0.50313859     0.78569162    -1.33524044
O       3.72906123     2.92350724     3.28842882     0.23252860    -0.10825480    -0.35768840
O       0.09970424     2.83730924     2.94980883    -0.00823010     0.07815128     1.43242767
O       5.96470398     6.61338501     1.65993299    -1.41791738    -0.42996574     0.57947493
O       5.74980399     2.92166502     1.49715902    -0.42206140     0.24347662     1.06012253
O       1.78131000     6.70436698     2.13414798     0.71740644    -0.18339968    -0.38866892
O       1.95877399     2.55995998     1.43469298    -0.18574967     0.20041191     0.25810543
