# total energy = -19517.06667334 eV

CRYSTAL
PRIMVEC
        5.17600016     0.00000000     0.00000000
        0.00000000     5.50899976     0.00000000
        0.00000000     0.00000000     9.26300011
PRIMCOORD
23 1
Ti      1.80074002     3.22124199     3.38482698     0.04880238    -0.67134794     3.49643137
Ti      3.38052800     2.28465002     5.85717902    -0.35001109    -0.08745225    -2.27396753
Ti      4.34368499     2.01966599     1.50478801     0.78127755    -0.69357488    -1.67663808
Ti      1.00608401     3.27549298     7.76318599    -2.23655205     0.18822693     1.76360747
Ti      1.99415800     0.30800000     1.34071702    -0.27104940     0.22294352    -0.69732817
Ti      3.17171899     5.30851202     7.85487802     0.65330753     1.07975600     0.93480872
Ti      0.72798099     0.52505099     5.93743600    -0.62650634    -0.41621856    -2.65225613
Ti      4.48823500     4.85933398     3.27489999    -0.28695964     0.79771051     3.86512025
O       1.65397800     1.85921998     4.85902701     0.46948901     0.63740859    -0.89406829
O       3.48283997     3.52254002     4.50578199     0.39870986     0.42218584    -0.49246748
O       0.22237399     2.64728899     0.09379201     0.36258302    -0.36562720    -0.17836418
O       3.35988199     0.94754701     0.14637598     0.76913243     0.74638998     0.55545105
O       1.78506901     4.79033599     9.04770598    -0.15681601    -1.19188468    -0.49120738
O       4.40872701     0.73597898     4.77306502    -1.56532315     0.33610707     0.38153848
O       1.01274101     4.69594500     4.38032898    -0.13069334    -0.44403765     0.55344456
O       0.07337799     3.32384899     2.54597700     0.55461441    -0.46461728    -0.24229597
O       5.03708102     2.08902298     6.78964099    -0.84819208     0.05169822     0.15533120
O       2.66231699     1.78177901     2.45220399     0.11256525     0.39625934    -0.99394077
O       2.62189298     3.74120299     6.94544400     0.56483635    -0.24368822    -0.32315719
O       0.20658402     0.56951802     2.13646398     0.39384738     0.59355070    -1.17866072
O       5.07478601     4.75816799     7.32023400    -0.57899876     0.47995520    -0.33851877
O       2.18164699     1.23840198     7.04769702     1.09001599    -1.14769511     1.09896986
O       2.76834501     4.49415702     2.30251800     0.85192095    -0.22604762    -0.37183256
