# total energy = -19073.30805332 eV

CRYSTAL
PRIMVEC
        5.17600016     0.00000000     0.00000000
        0.00000000     5.50899976     0.00000000
        0.00000000     0.00000000     9.26300011
PRIMCOORD
22 1
Ti      1.68665998     3.40591999     3.36436698     2.23187495    -0.84342088    -1.02948114
Ti      3.93962302     2.21976902     5.84778502    -1.54172813    -1.12265744    -0.73897132
Ti      4.42220802     2.20797800     1.35153902    -0.00124004    -0.73165807    -0.61684464
Ti      0.73724398     3.18392198     8.10551399    -0.47794949     1.67234150    -0.03126488
Ti      1.79142300     0.56585400     1.33529100    -0.20110405    -0.43720777    -0.81307491
Ti      3.11124398     5.13751400     8.06692601    -0.44383788    -0.12684362     0.09636318
Ti      0.89622898     0.19032500     5.99833002    -0.71123836    -0.49497148    -0.88437317
Ti      4.34161099     4.84822301     3.45144902    -0.22076194     0.32225165     0.14999127
O       3.41966902     3.23550200     4.35575298     0.50598275     0.20014297     1.19381609
O       0.83745999     2.09695402     0.34655098     0.33952741    -1.07916207    -0.22126793
O       4.28879598     3.77436197     8.69591101    -1.82933312     0.23704474     0.42097433
O       3.29347702     0.92368000     0.15533898     0.99033583     0.00154626    -1.43516435
O       1.51783403     4.76255699     9.07451998     0.72775179     0.66368913     0.71212359
O       4.53408699     0.70761899     4.81908000    -0.14159842     1.16609368     0.66588666
O       1.09614897     4.84179700     4.21648200    -0.20479487     0.26389813     2.03808158
O       0.14695998     3.64790697     2.33412100    -1.04276115    -1.67519466    -0.40301980
O       0.14313700     1.68551701     7.15137999    -0.49008458    -1.12806833    -1.72885566
O       2.67283899     2.09861400     2.06532298    -0.52196653    -0.17103550     1.76222319
O       1.74301699     4.17096598     6.78559902     1.05417377    -1.39896089     0.04436414
O       5.14053401     0.60939401     2.18419497     0.09949042     1.36621916    -0.34636423
O       2.57199898     0.86104298     6.33020797     1.53004529     1.67365122     1.48081507
O       2.70658701     4.62302401     2.33381598     0.34921687     1.64230252    -0.31595707
