# total energy = -19074.35318835 eV

CRYSTAL
PRIMVEC
        5.17600016     0.00000000     0.00000000
        0.00000000     5.50899976     0.00000000
        0.00000000     0.00000000     9.26300011
PRIMCOORD
22 1
Ti      1.73490899     3.37209598     3.31868400     0.02376266     0.46731129    -0.41158672
Ti      3.63340000     2.22039297     5.86782501    -1.05631061     0.69365664    -0.65762158
Ti      4.40112999     2.19424500     1.20287101     0.05810361     1.32720652    -1.65994030
Ti      0.74620999     3.32284101     8.05738500     0.11782419    -0.53423661     1.73414673
Ti      1.81131700     0.52117699     1.36311302    -0.25437758     0.46384775    -2.05833159
Ti      3.28864102     5.02603598     8.06321399     0.09896925    -0.41252029     1.87611359
Ti      0.78795699     0.26276598     6.04933403    -0.18199843     0.04962231    -1.96205197
Ti      4.29690800     5.04802901     3.38122799     1.17798169    -1.01919853     0.65442904
O       3.37170503     3.45860101     4.33648199     0.61499293    -0.73579523     2.44323874
O       0.85667002     2.01475602     0.09721600     0.40007640    -1.00507468     0.33304077
O       4.26531601     3.57404298     9.03961597    -0.06940336     1.18585261    -0.26112082
O       3.48890599     0.86737702     0.24091302    -0.56584911    -0.77294435    -1.51040463
O       1.69415599     4.77202498     9.22117499    -0.97560391    -0.12038629    -0.82556122
O       4.44433800     0.87373101     4.74219600    -0.83290481    -0.04071626    -0.03278518
O       0.97287301     4.82077199     4.31242998    -0.30056850    -0.60061661     1.57298401
O       0.02259301     3.52372400     2.35020100     0.44367770    -0.10973138     1.02475057
O       0.13943498     1.96928202     6.63095099     0.55660419     0.85393721     1.18405078
O       2.57781802     2.11649299     2.12054199     0.26001036    -0.32279209     0.85672763
O       2.49897903     3.48003999     7.34828103    -0.31540017    -1.40411698    -2.49388563
O       0.00157398     0.69855599     2.09266398     0.95101773    -0.40940076     0.79421072
O       2.56512100     0.55472799     6.59255199     0.06162808     1.09933110    -0.17212668
O       2.71253898     4.69225902     2.37393502    -0.21223256     1.34676465    -0.42827653
