# total energy = -19913.57025637 eV

CRYSTAL
PRIMVEC
        7.24605372     0.00000000     0.00000000
        0.00002373     3.30513950     0.00000000
        0.00000000     0.00000000    11.02792742
PRIMCOORD
24 1
Ti      2.62635990     1.95862262     4.09128242    -0.54406749     0.43218846     0.81323123
Ti      4.61971723     1.34651693     6.93664516     0.54406749    -0.43218846    -0.81323123
Ti      6.24926274     1.34651806     1.42263726    -0.54284544    -0.43190872    -0.81352305
Ti      0.99681439     1.95862160     9.60529042     0.54284544     0.43190872     0.81352305
Ti      2.62634820     0.30605292     1.42268150    -0.54406749     0.43218846    -0.81323123
Ti      4.61972893     2.99908668     9.60524618     0.54406749    -0.43218846     0.81323123
Ti      0.99680268     0.30605169     6.93660092     0.54284544     0.43190872    -0.81352305
Ti      6.24927445     2.99908791     4.09132666    -0.54284544    -0.43190872     0.81352305
O       2.29343002     1.16379579     5.62746699     4.93857190    -0.58384504     1.29582748
O       4.95264711     2.14134371     5.40046059    -4.93857190     0.58384504    -1.29582748
O       1.32965574     1.16380913     0.11353868    -4.93894651    -0.58478452     1.29380119
O       5.91642144     2.14133043    10.91438857     4.93894651     0.58478452    -1.29380119
O       4.95263545     0.48877396     0.11350291    -4.93857190     0.58384504     1.29582748
O       2.29344168     2.81636560    10.91442435     4.93857190    -0.58384504    -1.29582748
O       5.91640979     0.48876062     5.62750276     4.93894651     0.58478452     1.29380119
O       1.32966729     2.81637893     5.40042481    -4.93894651    -0.58478452    -1.29380119
O       0.26328021     2.01037319     2.97891834     0.52491790    -0.36034821     0.53596105
O       6.98279692     1.29476631     8.04900923    -0.52491790     0.36034821    -0.53596105
O       3.88631629     1.29473552     2.53508050     0.53101913     0.36034898    -0.53639223
O       3.35976084     2.01040403     8.49284691    -0.53101913    -0.36034898     0.53639223
O       0.26326856     0.35780344     2.53504531     0.52491790    -0.36034821    -0.53596105
O       6.98280857     2.94733612     8.49288210    -0.52491790     0.36034821     0.53596105
O       3.35974919     0.35783423     8.04904437    -0.53101913    -0.36034898    -0.53639223
O       3.88632794     2.94730532     2.97888315     0.53101913     0.36034898     0.53639223
