# total energy = -19515.02958129 eV

CRYSTAL
PRIMVEC
        5.93400000     0.00000000     0.00000000
        0.00000000     9.29699974     0.00000000
        0.00000000     0.00000000     4.64899994
PRIMCOORD
23 1
Ti      4.42925999     7.01663998     2.21423399     0.41323762     0.94160338    -0.82930963
Ti      4.57666401     2.19432898     2.20576699     1.07952357     2.48305228     0.80025770
Ti      1.34098902     6.88252498     2.51277298     0.39381113     1.49173841    -1.33763671
Ti      1.52798698     2.36037501     2.38879998    -0.64316247     1.81318967    -1.34067113
Ti      2.79812298     4.46419098     0.21570598     2.03804815    -0.94977794    -0.49993654
Ti      2.96385701     0.44011201     4.54072298     0.02352483    -2.90643471    -1.02681105
Ti      5.85272700     4.70474898     0.09536298    -0.59888214    -1.74374261    -1.04381428
Ti      5.92434098     0.01064800     4.45679102     1.73600024    -2.37314221    -0.62966288
O       4.43174400     5.47692501     0.82243601    -1.20070382     1.09263389     0.95045363
O       4.63199801     0.89023499     0.66904298    -1.26499274     2.27269329     3.13559594
O       1.40462698     5.53266002     1.09525302     0.52674107    -1.14171061    -1.59394545
O       1.66216098     0.96119301     0.98771701    -1.06280265    -0.12319600    -1.10259486
O       4.43347002     8.61375000     3.62019798     0.51974895    -1.91411657    -0.78988586
O       4.35968800     3.44761598     3.94126702     0.24123179     1.20735964    -0.18050616
O       1.66863002     8.46807099     3.66038302    -0.45717419    -0.26473502     0.59304728
O       1.38079098     3.62460799     3.72005098     1.47734074     1.86976168     2.21692990
O       3.02588801     1.47711500     3.00958099     0.60757633    -1.89647725     1.88820549
O       5.84089502     5.89905599     3.19493897    -0.00577470     0.44498536     0.82455232
O       0.18566099     1.42506502     3.17307998    -1.42871833    -1.11611861     0.45547675
O       2.97440700     7.45665002     1.34382800    -0.35659080     0.87931632     1.20318288
O       3.14097401     3.33302899     1.64693999    -0.73273588     0.65065183    -1.24378961
O       0.08845298     7.80471101     1.42185598    -0.57283403     0.48380929    -0.14883170
O       0.09478898     3.35436801     1.52706198    -0.73241295    -1.20134377    -0.30030625
