# total energy = -19517.84247841 eV

CRYSTAL
PRIMVEC
        5.93400000     0.00000000     0.00000000
        0.00000000     9.29699974     0.00000000
        0.00000000     0.00000000     4.64899994
PRIMCOORD
23 1
Ti      4.50980701     7.09353002     2.32993600     0.86802583    -0.21738017    -0.45034508
Ti      4.43049398     2.30527602     2.30807500     0.91994028     0.05472467    -0.83750734
Ti      1.42286200     7.01258299     2.21768999    -0.52716479    -0.27591341    -0.05479537
Ti      1.46498499     2.28434902     2.43860699    -0.16385981    -0.23046992    -0.73210338
Ti      3.00346899     4.47302999     0.15007499    -0.62071338     0.95921441     0.92427362
Ti      2.99813298     0.02922403     0.03978699    -0.12808187    -0.19049953    -0.39808791
Ti      5.89108198     4.53954000     4.55006200     0.32618544     0.82710671     0.93307297
Ti      0.05981798     0.05215502     4.62392298     0.09952770    -0.00866642    -0.37220717
O       4.44294499     5.62196201     0.94619401    -0.98387927    -0.69194685    -1.01926820
O       4.51614402     0.88688800     0.89482799    -0.34734305     0.06311726     0.18586846
O       1.37471402     5.44638597     0.87598700     1.55523465     1.21342950     0.41294812
O       1.46865102     0.96900499     0.88689599     0.10547518    -0.39924388    -0.04314364
O       4.42418502     8.45428101     3.63960000     0.11875030    -0.19221446     1.08341211
O       4.37386101     3.68345102     3.67620002    -0.41406886     1.27187687     0.54562609
O       1.57849398     8.49584899     3.62452702    -0.31908790    -0.60491292     0.82850642
O       1.48084099     3.64555700     3.71331498     0.34079856     0.92002667     0.05945601
O       3.05789201     1.45136100     3.21665800    -1.40793430    -0.60258607     0.59776859
O       0.00950699     6.12725998     3.26285401     0.15741302    -0.16262208    -0.22681535
O       5.88091400     1.47526198     3.28166599     0.33541004    -0.26544876    -0.36731179
O       2.99263102     7.87264398     1.49616898    -0.47591291    -0.15723716    -0.67641044
O       2.90786899     3.08346001     1.28121099     0.08434610     0.31110308     0.67192155
O       0.05570898     8.01126498     1.50763800    -0.27819681    -0.47808653    -0.92755846
O       5.79416100     3.38976801     1.44612702     0.75513585    -1.14337077    -0.13729927
