# total energy = -4985.60955812 eV

CRYSTAL
PRIMVEC
        4.32988413     0.00000000     0.00000000
       -0.00000743     3.20034932     0.00000000
       -2.16496857    -1.60021653     4.91573059
PRIMCOORD
6 1
Ti     -0.00018699     2.40037984     1.22893236    -0.00460279    -0.00943672     9.13184705
Ti      2.16509492    -0.80024704     3.68679750     0.00460279     0.00943672    -9.13184705
O       0.00004516     0.80007976     0.80073221     0.00254385     0.00353578    -3.05604803
O       2.16486261     0.80005299     4.11499765    -0.00254385    -0.00353578     3.05604803
O      -0.00001938    -0.80007668     3.25859735    -0.00163728    -0.00018975    -0.71928515
O       2.16492710     2.40020932     1.65713257     0.00163728     0.00018975     0.71928515
