# total energy = -19073.22503475 eV

CRYSTAL
PRIMVEC
        7.60600008     0.00000000     0.00000000
        0.00000000     7.60600008     0.00000000
       -1.89786986    -1.89786986     4.85670466
PRIMCOORD
22 1
Ti      3.60983299     6.52689199     1.41625099    -0.37478805     2.25002643    -0.18225503
Ti      3.87459100     2.90139398     1.31123201     1.00362021    -1.38416804     0.07184359
Ti     -0.09556602     6.51806600     0.88673502     0.16544284     1.33076158     1.84939005
Ti      0.29651500     2.88020901     1.02498501    -1.31896021    -1.88564622    -0.52448776
Ti      5.98372324     2.93752123     3.45285780    -2.67469519    -0.82680512    -1.02355603
Ti      5.89274524    -0.85887875     3.48627179     0.15304909    -0.36630238     0.09098598
Ti      1.88436822     3.02104122     3.70368882     1.72767166    -2.57211456     0.03761911
Ti      1.15702521    -1.07804677     4.07058280     1.62807172     2.61332782    -2.01015656
O       3.59005499     4.80293999     1.11679202     0.11407938    -0.69050112    -0.87875094
O       3.96721099     0.97724798     0.83251599    -0.37324204    -0.11057367     0.96978679
O       0.34226798     4.65996000     0.62640299     0.27812353     1.66283896    -0.19796139
O       0.02353802     0.84464701     0.42786002    -0.00970438     0.89741278     3.52704757
O       5.51972222     4.79247625     3.92330283     0.26353380    -1.91673729    -1.27417466
O       5.93408621     0.94643224     3.81734381     0.45325634     0.96011558     0.10678850
O       1.90253620     4.88935125     4.19936984    -0.06498954    -2.54751269     0.16075880
O       1.56265423     1.17051420     4.31874079     0.41219298    -0.29238185    -1.27239675
O       3.98139522     2.77304320     3.31295582    -1.14993326     0.46505308    -0.71380664
O       0.14830325     3.14705621     3.06896383     1.08919735     0.39576389    -0.13242292
O       5.58262499     6.40093701     1.69883699     1.29216751     0.33227741    -1.32071602
O       5.96920601     2.96537998     1.43975800    -1.00861843    -0.29869314     0.82871339
O       1.79699302     6.55098602     2.10770299    -0.76099488     0.77618059     0.43318682
O       2.02420702     2.39525600     1.57146201    -0.84448069     1.20767743     1.45456384
