# total energy = -19900.05713993 eV

CRYSTAL
PRIMVEC
        6.81129050     0.00000000     0.00000000
        0.00002231     3.10683113     0.00000000
        0.00000000     0.00000000    10.36625177
PRIMCOORD
24 1
Ti      2.46877831     1.84110526     3.84580547    -1.14748351     0.90140956    -1.29461803
Ti      4.34253419     1.26572592     6.52044645     1.14748351    -0.90140956     1.29461803
Ti      5.87430698     1.26572697     1.33727903    -1.14447583    -0.90202226     1.29700787
Ti      0.93700553     1.84110431     9.02897299     1.14447583     0.90202226    -1.29700787
Ti      2.46876731     0.28768975     1.33732061    -1.14572307     0.90198163     1.29410921
Ti      4.34254520     2.81914148     9.02893141     1.14572307    -0.90198163    -1.29410921
Ti      0.93699452     0.28768859     6.52040486     1.14494403     0.90173789     1.29573234
Ti      5.87431798     2.81914264     3.84584706    -1.14494403    -0.90173789    -1.29573234
O       2.15582422     1.09396805     5.28981897     7.19166566    -1.82789099     4.23445138
O       4.65548828     2.01286309     5.07643295    -7.19166566     1.82789099    -4.23445138
O       1.24987640     1.09398058     0.10672636    -7.19093804    -1.82806480     4.23419170
O       5.56143615     2.01285060    10.25952526     7.19093804     1.82806480    -4.23419170
O       4.65547733     0.45944752     0.10669274    -7.18934061     1.82769173     4.23400530
O       2.15583518     2.64738366    10.25955889     7.18934061    -1.82769173    -4.23400530
O       5.56142520     0.45943499     5.28985260     7.19209349     1.82866772     4.23574722
O       1.24988725     2.64739619     5.07639932    -7.19209349    -1.82866772    -4.23574722
O       0.24748340     1.88975080     2.80018324     2.89711035    -1.19685848     0.90024100
O       6.56382910     1.21708033     7.56606868    -2.89711035     1.19685848    -0.90024100
O       3.65313731     1.21705139     2.38297567     2.89886615     1.19743698    -0.89689213
O       3.15817519     1.88977979     7.98327610    -2.89886615    -1.19743698     0.89689213
O       0.24747245     0.33633523     2.38294259     2.89744099    -1.19700683    -0.89629435
O       6.56384005     2.77049595     7.98330918    -2.89744099     1.19700683     0.89629435
O       3.15816424     0.33636418     7.56610171    -2.89802720    -1.19704848    -0.90120902
O       3.65314827     2.77046700     2.80015016     2.89802720     1.19704848     0.90120902
