# total energy = -19935.84796486 eV

CRYSTAL
PRIMVEC
        5.99843972     0.00000000     0.00000000
        1.57151477     6.18771044     0.00000000
        0.00000000     0.00000000    10.82207233
PRIMCOORD
24 1
Ti      3.10542415     3.66683166     4.01491185     0.01173555    -2.01683963     0.83937422
Ti      4.46453051     2.52087919     6.80716109    -0.01173555     2.01683963    -0.83937422
Ti      5.81350404     2.52088133     1.39608141    -0.32338988    -0.50482498    -0.04193599
Ti      1.75645066     3.66682976     9.42599165     0.32338988     0.50482498     0.04193599
Ti      2.31966690     0.57297648     1.39612480     0.01173555    -2.01683963    -0.83937422
Ti      5.25028779     5.61473460     9.42594826    -0.01173555     2.01683963     0.83937422
Ti      0.97069328     0.57297411     6.80711770     0.32338988     0.50482498    -0.04193599
Ti      6.59926141     5.61473692     4.01495524    -0.32338988    -0.50482498     0.04193599
O       2.45190112     2.17879817     5.52242093     1.71663032     1.97264698    -0.64708186
O       5.11805348     4.00891269     5.29965201    -1.71663032    -1.97264698     0.64708186
O       1.65407434     2.17882314     0.11141933    -0.64367026     0.02539351     0.95521532
O       5.91588040     4.00888782    10.71065331     0.64367026    -0.02539351    -0.95521532
O       4.33229621     0.91505733     0.11138422    -1.71663032    -1.97264698    -0.64708186
O       3.23765846     5.27265352    10.71068842     1.71663032     1.97264698     0.64708186
O       5.13012312     0.91503240     5.52245605     0.64367026    -0.02539351     0.95521532
O       2.43983149     5.27267851     5.29961690    -0.64367026     0.02539351    -0.95521532
O       1.17382155     3.76371639     2.92331189     0.43931170     1.48096985     1.54533925
O       6.39613305     2.42399446     7.89876105    -0.43931170    -1.48096985    -1.54533925
O       3.83278480     2.42393676     2.48775902     0.79167484     1.46333491     0.62344852
O       3.73716987     3.76377415     8.33431374    -0.79167484    -1.46333491    -0.62344852
O       0.38806428     0.66986104     2.48772445     0.43931170     1.48096985    -1.54533925
O       7.18189040     5.51784987     8.33434830    -0.43931170    -1.48096985     1.54533925
O       2.95141258     0.66991873     7.89879555    -0.79167484    -1.46333491     0.62344852
O       4.61854208     5.51779211     2.92327733     0.79167484     1.46333491    -0.62344852
