# total energy = -19960.99804233 eV

CRYSTAL
PRIMVEC
        7.60600008     0.00000000     0.00000000
        0.00000000     7.60600008     0.00000000
       -1.89786986    -1.89786986     4.85670466
PRIMCOORD
24 1
Ti      3.79576000     6.77316500     1.12005202     1.70173205    -0.00859546    -0.33828814
Ti      3.79591499     2.86715198     1.20779400     0.50856954     0.12947129    -0.44126292
Ti     -0.04632502     6.64706799     1.21054900    -0.98934441    -1.17788862     0.90701791
Ti     -0.05869301     2.74420199     1.29664497    -0.35905109     0.71232054    -0.42895787
Ti      5.61039922     2.82320524     3.71315882     0.38551366    -0.52155464     0.25435830
Ti      5.65596525    -0.95825179     3.65225083     0.79390013     0.33374577    -0.24220906
Ti      1.92080425     2.83474622     3.61789781     0.33293381     0.00322288     0.44032009
Ti      1.95434721    -0.92111079     3.44302484    -0.60515229     0.18897307     1.77405773
O       4.00012799     4.75996799     0.88875801    -0.76107973     1.18999183    -1.09469309
O       3.97157501     1.06616801     0.72948402    -0.90004945    -1.45133505    -0.50147149
O      -0.21494698     4.73582200     0.86071500     0.53117674    -0.53947421     0.16292984
O      -0.08962199     0.82030401     0.83030498     0.32227607     2.42282134     0.02449337
O       5.55811524     4.69801721     4.13589180     0.35843942     0.26278638    -0.93630459
O       5.83181323     0.90431920     4.19538979    -0.05982034    -0.35136349     0.03257666
O       2.19277320     4.88176321     3.94617784    -1.03004936    -1.56139965     0.87964259
O       1.89057823     1.02743224     4.01701282    -0.26631471    -0.71235833     0.19988072
O       3.86735525     2.52958621     3.32009379    -1.06725478     0.91104966    -0.64769532
O       3.83221221    -0.94161678     3.15705782    -0.58229106     0.52978140    -0.08427514
O       0.05323825     2.83545522     3.22400382    -0.30536746     0.35686591     0.39970899
O       0.01487120    -1.01320277     3.25445781     0.06642756    -0.27429464    -0.36614708
O       5.64723499    -0.65397100     1.75166698     0.77549925    -0.97771273    -0.57287131
O       5.64098398     2.79472799     1.71186200     1.63165532     0.07801578     0.07028113
O       1.90988801     6.69097202     1.51388001     0.18159066     0.09368049    -0.02930493
O       1.96001999     2.77993801     1.62691100    -0.66393930     0.36325099     0.53821360
