# total energy = -19071.62359048 eV

CRYSTAL
PRIMVEC
        5.17600016     0.00000000     0.00000000
        0.00000000     5.50899976     0.00000000
        0.00000000     0.00000000     9.26300011
PRIMCOORD
22 1
Ti      1.72000101     3.58182702     3.28925799     2.49295361     1.10513100    -0.66496183
Ti      3.83514200     2.35033700     6.03129099     0.15188926    -1.40740105    -0.44910658
Ti      4.31692302     2.37759502     1.68876801     0.18211285     1.18072197    -1.42730551
Ti      1.52455802     2.59198299     7.97766000    -1.00510990     1.35120186    -0.78915490
Ti      1.61944902     0.72474899     1.28111500    -0.16683226    -0.25695409     1.27349024
Ti      3.04513202     5.50012599     7.86004501     0.50212378    -1.12488608    -2.35284026
Ti      0.46703501     5.12148702     6.24368501    -0.32107742     2.84245536     0.16790570
Ti      4.43696899     5.10236298     3.57220600    -1.48053585    -0.50497719     0.86783171
O       3.43176500     3.15438399     4.26559198     0.48105924     0.21645020     1.14791391
O       0.62165299     1.98833399     0.21116300    -1.59558376     0.36887528     0.79699265
O       0.30340902     3.37985801     6.65700001    -1.81614207    -3.33530953    -2.46045948
O       2.97830402     1.05774198     9.24851398     0.42128981     1.10144532     1.82420531
O       1.36119401     4.62850502     7.93920897    -0.08401340     1.71511311     2.50765466
O       3.96828501     0.39650002     5.32926598     0.73247748    -1.11190740    -3.08364138
O       1.09794802     4.85947199     4.41934898    -1.45799010     0.43962949     2.10150789
O       0.22288200     3.92433901     2.12097602    -1.50531230    -0.03991948    -0.33090136
O       4.58146698     0.95156600     7.32053700     1.58685898     0.12726425     1.02882757
O       2.45845701     2.35212699     2.03275900     0.31555778    -0.51650756    -0.68782692
O       3.16318199     3.36549100     7.41447401     1.05683846     0.84828567     0.80445220
O       5.15901098     1.14472401     2.64283300     0.66300368    -0.89641905     0.37863082
O       2.01275001     1.30884097     6.70391501    -0.07566991    -1.03592202    -0.48017940
O       2.63565699     5.28182503     2.54064501     0.92210155    -1.06637006    -0.17303531
