# total energy = -19939.28421955 eV

CRYSTAL
PRIMVEC
        5.94288315     0.00000000     0.00000000
        0.94347895     6.25426138     0.00000000
        0.00000000     0.00000000    10.66666048
PRIMCOORD
24 1
Ti      2.71311404     3.70626944     3.95725499     0.00789920    -1.55249643     0.79011958
Ti      4.17324799     2.54799176     6.70940573    -0.00789920     1.55249643    -0.79011958
Ti      5.50972733     2.54799388     1.37603271    -0.07984898    -0.03751189    -0.27724139
Ti      1.37663471     3.70626757     9.29062813     0.07984898     0.03751189     0.27724139
Ti      2.24137469     0.57913886     1.37607549     0.00789920    -1.55249643    -0.79011958
Ti      4.64498735     5.67512253     9.29058535    -0.00789920     1.55249643     0.79011958
Ti      0.90489534     0.57913657     6.70936295     0.07984898     0.03751189    -0.27724139
Ti      5.98146670     5.67512482     3.95729777    -0.07984898    -0.03751189     0.27724139
O       2.21317499     2.20223168     5.44311525     1.57095284     1.69855957    -0.41093957
O       4.67318703     4.05202953     5.22354541    -1.57095284    -1.69855957     0.41093957
O       1.42273506     2.20225696     0.10981924    -0.90946637     0.51229609     0.57242856
O       5.46362703     4.05200430    10.55684118     0.90946637    -0.51229609    -0.57242856
O       4.20144767     0.92489877     0.10978464    -1.57095284    -1.69855957    -0.41093957
O       2.68491435     5.32936244    10.55687577     1.57095284     1.69855957     0.41093957
O       4.99188767     0.92487354     5.44314990     0.90946637    -0.51229609     0.57242856
O       1.89447430     5.32938773     5.22351082    -0.90946637     0.51229609    -0.57242856
O       0.78979606     3.80419630     2.88133116     0.38248310     0.74967662     1.00622576
O       6.09656596     2.45006485     7.78532956    -0.38248310    -0.74967662    -1.00622576
O       3.55696477     2.45000668     2.45203313     0.64424696     1.05831299     0.27209969
O       3.32939725     3.80425447     8.21462741    -0.64424696    -1.05831299    -0.27209969
O       0.31805670     0.67706554     2.45199902     0.38248310     0.74967662    -1.00622576
O       6.56830532     5.57719561     8.21466146    -0.38248310    -0.74967662     1.00622576
O       2.85765789     0.67712371     7.78536356    -0.64424696    -1.05831299     0.27209969
O       4.02870413     5.57713744     2.88129711     0.64424696     1.05831299    -0.27209969
