# total energy = -19959.34532676 eV

CRYSTAL
PRIMVEC
        5.93400000     0.00000000     0.00000000
        0.00000000     9.29699974     0.00000000
        0.00000000     0.00000000     4.64899994
PRIMCOORD
24 1
Ti      4.48711298     6.76384598     2.13871198    -1.64087608     2.08773628     2.22094005
Ti      4.43302599     2.60929301     2.26842899     2.99743457    -3.36391050    -0.36004791
Ti      1.49674298     6.91800298     2.17688000     1.80488449     0.49268243     1.42717747
Ti      1.49817202     2.30398901     2.46954597    -1.91766597    -1.61820228     0.34914411
Ti      3.05352101     4.60503802     0.06072499    -3.73004961     0.01704822    -0.79408396
Ti      2.94176603     0.09993301     0.13439102     0.82108313    -0.06959079    -0.87721444
Ti      5.91968100     4.64531401     4.46004398     2.90004629    -0.88563558     0.81629625
Ti      5.90682601     9.21454398     0.19668100    -0.50736266     1.04951313    -2.32882357
O       4.43544099     5.52922899     0.82472200     0.58250343     0.04911606    -0.22647391
O       4.43218200     0.94953698     1.21416503    -0.37257664    -1.18997255    -1.46464746
O       1.45644502     5.54569201     0.79051800     0.35275908     0.24052550     0.17118051
O       1.40094898     0.84658300     1.11517602     0.91033052     0.02731412    -0.43384451
O       4.49626701     8.54955699     3.81470899    -0.59478843    -0.18888565     0.34093560
O       4.39918002     3.83155402     3.70078199    -0.29371548     0.08663670     0.01255702
O       1.41174600     8.32037402     3.79058703     0.28678121     0.77828864     0.23267207
O       1.46015699     3.75252198     3.72403002     0.59581044     0.90753985     0.18032027
O       2.99151498     6.04006099     3.18555402     0.48315957    -0.06475917    -0.32117821
O       2.88697702     1.54146899     3.45836600     0.08251830     0.00904772    -0.40047363
O       0.01698500     5.88798301     3.00213801    -0.22946487     0.51381176     0.57433452
O       5.87656898     1.64310801     3.29480001     0.61281470    -0.05034042     0.05419810
O       3.03091800     7.76621500     1.32333498    -0.24655989     0.01180651     0.55613368
O       2.98949601     3.08316499     1.29290702    -1.31292686     1.85347605    -0.54649126
O       0.05878900     7.82272902     1.41948998    -1.08356175    -0.55844047     0.53131352
O       5.91529602     3.35222897     1.33870599    -0.50057752    -0.13480505     0.28607596
