# total energy = -39037.52227885 eV

CRYSTAL
PRIMVEC
        7.60600008     0.00000000     0.00000000
        0.00000000     7.60600008     0.00000000
       -3.79573973    -3.79573973     9.71340985
PRIMCOORD
46 1
Ti      1.89326745     4.83897643     6.23256165     0.20472391     0.16992427     0.38512517
Ti      3.76143402     6.69189401     1.33775099    -0.08518942     0.75057008    -0.10492779
Ti      1.90717645     0.77468946     6.02105162    -0.16682378     0.23911397     0.21383770
Ti      3.75356102     2.79039900     1.14693401     0.97330483    -0.68501361    -0.35523737
Ti     -1.87097157     4.74923046     6.16266861    -0.43475468    -0.07631577    -0.54314240
Ti     -0.06226897     6.73068201     1.30688598     0.06125836    -0.28613483    -0.87988222
Ti     -1.90125856     0.97536744     6.03485161     0.55972962     0.45127017    -0.52860795
Ti      0.04524402     2.92605401     1.10349099    -0.65942213     0.49993551    -1.79857526
Ti      3.85668846     1.03812046     8.37608861    -0.19902043    -1.06731545     1.60832050
Ti      5.71574799     2.87785898     3.45704899    -1.10874263    -0.03050666     0.49075101
Ti      3.81428845    -2.88548654     8.54218661    -0.31512635     1.84050868    -0.30530859
Ti      5.74420402    -0.94776497     3.71327000    -0.74688415     0.00044891    -0.15445317
Ti      0.04169245     1.01262946     8.44171765     0.12751468    -1.69683358    -0.93023498
Ti      1.82541201     2.77525998     3.49750702     1.06385501    -0.39073918     0.55825509
Ti     -0.00976655    -2.94088754     8.59586862    -0.03332228     0.70217136     0.66862668
Ti      1.92401403    -1.16977298     3.67724202    -0.25375923     1.56336474     0.03487806
O       1.67662144    -1.01698956     5.72528863     0.30384743     0.44188435    -1.15479676
O       3.54683999     0.90963701     0.91038601     0.39222810     0.36401101    -1.53461131
O      -1.91663354     2.98400247     5.70943062    -0.14733686    -1.82518593    -0.67976470
O       0.04023202     4.80403798     0.77268700    -0.49350312     0.04311690    -0.47544832
O      -1.85412754    -0.87957758     5.65395861     0.38125797    -1.14545337    -0.07956565
O      -0.04053101     1.01718001     0.78161401     0.40330365    -0.92940683     0.51758563
O       3.74304447     2.94852245     8.97037863    -0.08465515    -1.99799267    -0.67449214
O       5.56665098     4.74795302     3.99974597     0.44004961    -0.06297405    -0.12282062
O       4.04565342    -0.98603454     8.85410961    -0.56886013     1.45907253     0.36102133
O       5.71399700     0.92190498     4.00134398     0.07904268     2.00732963     0.63141766
O       0.16430345     2.71500542     9.07310861    -0.10318072     0.98512574    -0.37269208
O       1.86297899     4.64945102     4.27700702     0.23877227    -1.44549376    -1.72888137
O       0.01756847    -0.85362953     8.92072461    -0.24820179    -0.08806906     0.21209758
O       1.88538001     0.95627198     4.05879501    -0.27929647     0.89451797     0.13717817
O       1.99012546     0.87191445     7.96424763    -0.43294488     0.52344003     0.65479928
O       3.83960403     2.74188302     3.06592403    -0.35709037     0.57002252     1.17365246
O       1.85253647    -2.58152655     8.16554862     0.13213315    -1.21935898     0.33522313
O       3.75873802    -0.70632002     3.25014899    -0.40387932    -1.56338068     0.41324354
O      -1.90117754     0.90625843     8.04893160     0.52627622     0.92614127    -0.29182546
O      -0.01885898     2.81382499     3.00938800     0.13274045     0.13349867     1.75698405
O      -1.91906357    -2.98110554     8.11597963     1.10628594     0.02764708    -0.05757062
O      -0.05699599    -0.87099501     3.29496998     1.18873559    -0.60574390    -0.42110880
O       3.78900045     4.91831846     6.51306565    -0.13269674    -0.72579775     0.13511486
O       5.68501300     6.77240701     1.55645402    -0.43857740    -0.71021892     0.84816225
O       3.83884042     0.75671146     6.39127963    -0.32297387     1.01274506     0.05080322
O       5.69728198     2.82549700     1.42992498    -0.23655238     0.61723828     0.79537929
O       0.02049943     4.65545046     6.51086263    -0.32697425    -0.29344268     0.55119279
O       1.83857000     6.53653000     1.60113499     0.74601306    -0.37125895     1.14511552
O       0.03363747     1.01166942     6.46440262    -0.08148677     0.49698903    -0.27699893
O       1.92930998     2.94131199     1.58458497    -0.39981697     0.49654860    -0.20781849
