# total energy = -19961.81565417 eV

CRYSTAL
PRIMVEC
        7.60600008     0.00000000     0.00000000
        0.00000000     7.60600008     0.00000000
       -1.89786986    -1.89786986     4.85670466
PRIMCOORD
24 1
Ti      3.86914699     6.60086102     1.21027002    -1.10369941     0.33678533     0.04603819
Ti      3.81181698     2.78823599     1.21166001     0.04044604    -0.14853166    -0.55473063
Ti     -0.02582200     6.65395401     1.17159298     1.10587250     1.23523015     0.64805965
Ti     -0.02195699     2.92694202     1.23576699    -0.16858781    -1.03888239     0.04652413
Ti      5.66288424     2.86131923     3.66522980     1.15046162    -0.00615008    -0.37216552
Ti      5.70306324    -0.92108079     3.63106781     0.33823080    -0.09173751     0.70611209
Ti      1.93778221     2.82632220     3.64611380    -0.98775547    -0.30346279    -0.17242081
Ti      1.92632722    -0.98302580     3.65465483    -0.41007979     0.51305380    -1.08503422
O       3.83266403     4.64628500     0.75313099     0.10273515     1.29194716     0.56460958
O       3.81114900     0.91583802     0.73320302     0.07491837     0.02938078     0.58893994
O      -0.10834999     4.80067998     0.80958902     0.33733709    -1.17858873    -0.33515525
O      -0.04828700     0.91537499     0.81504700     0.26307897     1.11329631    -0.62525395
O       5.55392522     4.79767621     4.03637382     0.23568386    -0.41302371    -0.14564431
O       5.62607922     0.97226324     4.02906181     0.58907621     0.18727280     0.91352255
O       1.94150122     4.73380425     4.08777080     0.37970863    -0.43239955    -0.40127299
O       1.85026820     0.91923221     4.09214784     0.11000135     0.25254259    -0.64244744
O       3.87515521     2.83120725     3.12925183    -1.92247728     0.01586294     0.89228317
O       3.84068720    -0.71020175     3.17188383    -0.36955508    -0.97653311    -0.05517204
O      -0.00834978     2.91320421     3.30614981    -0.01486021     0.03374908    -0.46759616
O       0.00655524    -1.01188575     3.22912081    -0.26576783     0.15050292    -0.15820261
O       5.72330797     6.63785099     1.55205698    -0.56050867    -0.08467623     0.75679627
O       5.71927501     2.75637698     1.64280400     0.07934093     0.29067566    -0.10003832
O       1.91775201     6.71569402     1.62175100     0.10058622    -0.67650686     0.02494871
O       1.82959002     2.85776999     1.66071299     0.89581355    -0.09980666    -0.07269977
