# total energy = -19070.15453769 eV

CRYSTAL
PRIMVEC
        5.17600016     0.00000000     0.00000000
        0.00000000     5.50899976     0.00000000
        0.00000000     0.00000000     9.26300011
PRIMCOORD
22 1
Ti      1.77942402     3.42408500     3.36082800     1.33701451     1.44563131    -0.10015967
Ti      3.69529802     2.41683198     6.17335301    -4.03453390    -0.84074153    -3.21616046
Ti      4.45779699     2.28919099     1.54476200     0.79488563     1.01099336    -0.52580108
Ti      1.20439700     2.01384800     7.95276200     0.24813006     4.84702414    -4.41525374
Ti      1.75778897     0.76466801     1.29681098     1.79368476     0.37455870    -1.43089734
Ti      3.30448798     5.31353502     8.06385699    -1.21027219     2.04842282     1.96881681
Ti      0.48653599     5.38431798     6.05595297     3.56089564    -0.28864063    -1.75411804
Ti      4.29781998     5.29218902     3.40937599    -1.23046178    -0.81202384     0.10767501
O       3.35858598     3.46890600     4.63303102    -1.33562302     0.94250995    -0.61311680
O       0.70908201     2.43714699     0.29104997    -0.40900096     1.68972577     2.55151822
O       5.01322503     3.19568501     6.86561798     3.88332983     2.81242898     1.43195947
O       3.66335900     0.70539100     0.36439198     0.48345011    -0.01585420     0.28813515
O       1.44654602     0.45635198     8.57026999     0.56890307    -5.57306640     1.67043477
O       4.27591898     1.04080402     4.65208701     0.05163060     0.58976475     1.80941992
O       0.75019300     4.90194900     4.29425899     1.77004423    -1.14119510     2.46204919
O       0.05916800     3.84951398     2.51312700    -0.42829195    -3.01424471    -1.97264055
O       4.45092901     0.75127601     7.01361102     0.12780213     0.82596668     1.15575784
O       2.85603201     1.92221202     2.34245898    -2.16713789     1.17098854     1.39049219
O       2.56549401     3.90361299     7.37309103    -1.72166119    -3.45723823    -0.86388070
O       0.19980098     0.86397002     2.27480002    -0.21692688    -0.25619073     0.82778111
O       1.97940798     1.28845902     6.27439501    -1.30486671    -1.27672880    -0.87136621
O       2.61334502     4.85116201     2.37932099    -0.56099435    -1.08209056     0.09935466
