# total energy = -19884.93119098 eV

CRYSTAL
PRIMVEC
        9.12226379     0.00000000     0.00000000
        0.00002836     3.23628243     0.00000000
        0.00000000     0.00000000    14.51275228
PRIMCOORD
24 1
Ti      3.30639846     1.91781786     5.38412771     0.16459206     0.12360892     2.02015224
Ti      5.81589332     1.31846426     9.12862501    -0.16459206    -0.12360892    -2.02015224
Ti      7.86737475     1.31846530     1.87219067     0.16318952    -0.12347573    -2.01956166
Ti      1.25491709     1.91781694    12.64056218    -0.16318952     0.12347573     2.01956166
Ti      3.30638465     0.29967671     1.87224886     0.16277506     0.12319137    -2.01940714
Ti      5.81590719     2.93660553    12.64050398    -0.16277506    -0.12319137     2.01940714
Ti      1.25490322     0.29967560     9.12856681    -0.16286608     0.12338652    -2.02022809
Ti      7.86738862     2.93660664     5.38418591     0.16286608    -0.12338652     2.02022809
O       2.88726393     1.13954996     7.40574658     1.37839257     0.44002930    -1.79247763
O       6.23502791     2.09673222     7.10700614    -1.37839257    -0.44002930     1.79247763
O       1.67394099     1.13956310     0.14941694    -1.37908471     0.44019874    -1.79264938
O       7.44835091     2.09671908    14.36333534     1.37908471    -0.44019874     1.79264938
O       6.23501404     0.47859094     0.14936981    -1.38083255    -0.43980356    -1.79202074
O       2.88727780     2.75769117    14.36338247     1.38083255     0.43980356     1.79202074
O       7.44833704     0.47857787     7.40579364     1.37897673    -0.43998688    -1.79318134
O       1.67395468     2.75770431     7.10695907    -1.37897673     0.43998688     1.79318134
O       0.33144997     1.96849042     3.92025652    -1.38037643     0.50682453     1.09380246
O       8.79084187     1.26779169    10.59249613     1.38037643    -0.50682453    -1.09380246
O       4.89259393     1.26776170     3.33616594    -1.38100661    -0.50707547    -1.09320879
O       4.22969791     1.96852048    11.17658653     1.38100661     0.50707547     1.09320879
O       0.33143610     0.35034921     3.33611962    -1.38044328     0.50766065    -1.09324067
O       8.79085574     2.88593297    11.17663285     1.38044328    -0.50766065     1.09324067
O       4.22968411     0.35037921    10.59254239     1.38123775     0.50736780    -1.09330932
O       4.89260773     2.88590291     3.92021020    -1.38123775    -0.50736780     1.09330932
