# total energy = -19913.01192724 eV

CRYSTAL
PRIMVEC
        6.48919995     0.00000000     0.00000000
        2.34546760     6.49600894     0.00000000
        0.00000000     0.00000000    11.80180214
PRIMCOORD
24 1
Ti      3.74194490     3.84952878     4.37838444    -0.22551334    -2.10127006     0.60678134
Ti      5.09272289     2.64647998     7.42341783     0.22551334     2.10127006    -0.60678134
Ti      6.55206249     2.64648219     1.52246958    -0.08705013    -0.91161967     0.03996499
Ti      2.28260533     3.84952676    10.27933282     0.08705013     0.91161967    -0.03996499
Ti      2.56921126     0.60152448     1.52251689    -0.22551334    -2.10127006    -0.60678134
Ti      6.26545655     5.89448441    10.27928550     0.22551334     2.10127006     0.60678134
Ti      1.10987156     0.60152209     7.42337051     0.08705013     0.91161967     0.03996499
Ti      7.72479626     5.89448686     4.37843175    -0.08705013    -0.91161967    -0.03996499
O       2.87975183     2.28735510     6.02236930     1.83549657     2.08413725    -0.74392069
O       5.95491596     4.20865366     5.77943297    -1.83549657    -2.08413725     0.74392069
O       2.01665368     2.28738130     0.12150620    -0.43372238    -0.44698902     1.36737282
O       6.81801418     4.20862751    11.68029574     0.43372238     0.44698902    -1.36737282
O       4.78218230     0.96064923     0.12146790    -1.83549657    -2.08413725    -0.74392069
O       4.05248549     5.53535953    11.68033404     1.83549657     2.08413725     0.74392069
O       5.64528051     0.96062302     6.02240759     0.43372238     0.44698902     1.36737282
O       3.18938722     5.53538575     5.77939467    -0.43372238    -0.44698902    -1.36737282
O       1.66241395     3.95124077     3.18796119     0.58552705     2.34676937     2.28645178
O       7.17225384     2.54476799     8.61384108    -0.58552705    -2.34676937    -2.28645178
O       4.39918000     2.54470748     2.71297746     0.66017315     1.97322419     1.30817572
O       4.43548778     3.95130128     9.08882461    -0.66017315    -1.97322419    -1.30817572
O       0.48968029     0.70323634     2.71293975     0.58552705     2.34676937    -2.28645178
O       8.34498750     5.79277242     9.08886232    -0.58552705    -2.34676937     2.28645178
O       3.26275412     0.70329685     8.61387865    -0.66017315    -1.97322419     1.30817572
O       5.57191366     5.79271191     3.18792355     0.66017315     1.97322419    -1.30817572
