# total energy = -19517.54773776 eV

CRYSTAL
PRIMVEC
        7.60600008     0.00000000     0.00000000
        0.00000000     7.60600008     0.00000000
       -1.89786986    -1.89786986     4.85670466
PRIMCOORD
23 1
Ti      3.79696001     6.48844499     1.25614302    -0.83303079     1.93262877     0.43889081
Ti      3.80003199     2.87060698     1.05620101     0.84309821    -2.24876942     1.76641898
Ti     -0.07043598     6.58508699     1.27255799     0.79638227     1.23489565    -0.02677291
Ti      0.05625398     2.95353302     1.06828599    -0.19577055    -1.17516736     0.63716999
Ti      5.66808822     2.98216823     3.62485681    -1.90428672    -1.22356582    -1.25305150
Ti      5.62401025    -0.91459678     3.66887980     0.12148595     0.27711129     1.00730666
Ti      1.83964624     2.89493320     3.66010181     2.89380339    -0.31245574    -1.51496242
Ti      1.82544624    -1.06068976     3.67266480     0.53861135     0.53867228     0.40777917
O       3.99986398     4.69924601     0.67226699    -0.52763093     0.32090388     1.17377793
O       3.63467902     0.91498901     0.79490599     0.05123259     0.22402750     0.08897666
O      -0.16870202     4.78992202     0.82020198     0.13483898    -0.25610820     0.20473316
O      -0.03640200     0.91334702     0.79964398     0.33454384    -0.03765742    -0.35487587
O      -1.56656379     4.66212222     4.13562684    -0.37108309     1.53522966    -0.33823800
O       5.63785421     0.98731722     4.03919079     1.04878474    -0.46608076    -0.55746628
O       2.05099725     4.71916922     4.19899380    -0.89629461    -0.12369299    -1.47214274
O       2.18091222     0.86130821     4.06160881    -1.48514764     0.95741335    -0.65428301
O       3.81428723     2.99718724     3.40788180     0.39419885    -0.20564154    -1.58949384
O       3.80285521    -0.88827275     3.24402180     0.01341808    -1.12375325     0.17133529
O      -0.00207877    -1.11022678     3.28548782    -0.39360210     0.85245394    -0.72767312
O       5.60417001     6.79112702     1.62807699     1.65819092    -0.61191661     0.42609057
O       5.86966999     2.86071999     1.67341701    -0.57053932     0.05866874     0.89375076
O       1.88902202     6.37400099     1.63741702    -0.08015700     0.31941392     0.49687050
O       2.01685701     3.13300899     1.49575299    -1.57104643    -0.46661015     0.77585972
