# total energy = -39040.38813030 eV

CRYSTAL
PRIMVEC
        7.60629642    -0.00000847    -0.00005503
       -0.00000847     7.60629642    -0.00005503
       -3.80314186    -3.80314186     9.70738094
PRIMCOORD
46 1
Ti      1.91638399     4.73971702     6.07233281     0.02266660     0.00180697    -0.02044028
Ti      3.80314948     6.64079411     1.20524887    -0.00008176    -0.00814372     0.02751313
Ti      1.81956036     0.95967560     6.01436667    -0.00891299    -0.01878809     0.00558778
Ti      3.80296056     2.86639111     1.19621922     0.00024117     0.03332357    -0.02089099
Ti     -1.91672499     4.73966283     6.07236660    -0.02254601     0.00182883    -0.02027187
Ti      0.00002216     6.67456661     1.37915160    -0.00006145     0.03320015     0.00796040
Ti     -1.81947434     0.95962622     6.01450762     0.00827870    -0.01890841     0.00541397
Ti     -0.00018385     2.78492618     1.16360835     0.00039261     0.03162278     0.04282020
Ti      3.80316953     0.91683113     8.62955446     0.00021083     0.05300820     0.01170598
Ti      5.71200996     2.85907932     3.60920173     0.00085618    -0.00813677    -0.01342039
Ti      3.80321672    -2.80707518     8.48167303    -0.00012316    -0.02400357     0.04511619
Ti      5.67153935    -0.95890724     3.66752354    -0.00049982     0.01908222    -0.01902000
Ti      0.00019977     0.95781295     8.43047159    -0.00017149    -0.01267477     0.04872114
Ti      1.89457354     2.85914668     3.60917143    -0.00099270    -0.00817560    -0.01338440
Ti      0.00006194    -2.87235421     8.49527304     0.00015581    -0.05359698     0.00326582
Ti      1.93482514    -0.95886814     3.66750331     0.00065177     0.01909688    -0.01894749
O       2.00622771     2.83205553     5.64117932    -0.01217392    -0.00964601     0.05490979
O       3.80316327     4.75083512     0.75502215     0.00002031     0.01968386     0.00986121
O       2.04745526    -0.92535476     5.70029701    -0.00386180     0.00907394     0.01908119
O       3.80314831     0.95584773     0.76098964     0.00000309    -0.01467998    -0.00559369
O      -2.00627058     2.83200057     5.64122724     0.01203842    -0.00942952     0.05480771
O       0.00006854     4.84624524     0.80647616    -0.00004499    -0.05006994    -0.01754084
O      -2.04748303    -0.92535910     5.70037434     0.00370830     0.00891839     0.01891638
O       0.00012520     0.86820897     0.78358335    -0.00006222    -0.01467098    -0.03127697
O       5.72673657     4.75153364     4.08937093     0.02264551     0.00610766    -0.00423924
O       3.80306391    -0.95096431     8.90667988     0.00004808    -0.01469386     0.01668338
O       5.66617295     0.95613215     4.04607639    -0.02138670    -0.00847590     0.02013972
O      -0.00000196     2.83829485     8.89881311    -0.00008330    -0.01834097    -0.03346369
O       1.87947066     4.75157278     4.08935968    -0.02255630     0.00603875    -0.00423821
O      -0.00003782    -0.92956997     8.83872669    -0.00001311     0.03311248    -0.04043601
O       1.94019543     0.95617088     4.04603689     0.02143555    -0.00846279     0.02042999
O       2.03192687     1.10427996     8.02326042     0.02836211     0.02174820    -0.02624172
O       3.80317266     2.88322503     3.16408942    -0.00011159     0.02741285    -0.00731659
O       1.91859666    -2.97196774     8.09213736     0.01529833     0.02377654     0.03667166
O       3.80317069    -0.98059505     3.23241083     0.00002571    -0.02546344    -0.01904571
O      -2.03203573     1.10432404     8.02315122    -0.02823561     0.02172094    -0.02617898
O       0.00000555     2.83037369     3.22762888     0.00005528    -0.00913925    -0.02553852
O      -1.91861847    -2.97196856     8.09214808    -0.01534718     0.02376652     0.03679764
O       0.00000322    -0.92559349     3.32682427     0.00000077    -0.01115396    -0.03266074
O       3.80309357     4.71388874     6.49534170    -0.00004422    -0.00710190     0.01588557
O       5.68783801     6.65873923     1.67691869     0.02053978    -0.00661802    -0.02671146
O       5.72058817     2.85260116     1.59836754     0.00637531    -0.00349799    -0.02631294
O      -0.00004384     4.78075299     6.47486994     0.00016327    -0.00216358     0.01756630
O       1.91849415     6.65872989     1.67693186    -0.02054904    -0.00660002    -0.02674925
O       0.00002868     0.91428288     6.45312961    -0.00001491    -0.01825895    -0.01362737
O       1.88570747     2.85265669     1.59840357    -0.00629946    -0.00343500    -0.02630831
