# total energy = -19071.87436187 eV

CRYSTAL
PRIMVEC
        7.60600008     0.00000000     0.00000000
        0.00000000     7.60600008     0.00000000
       -1.89786986    -1.89786986     4.85670466
PRIMCOORD
22 1
Ti      3.99360799     6.58168798     1.32929701     0.41274680     1.46708204     0.33452738
Ti      3.60456000     2.83162201     1.25859401     0.33090701    -1.68813014    -2.04063134
Ti      0.07837401     6.64639397     1.07281803     0.25889064    -1.03122512     0.22056088
Ti     -0.14042999     2.80010702     1.04870702     0.98518719     0.86185493    -1.83415188
Ti      5.77423224     2.96221825     3.43392981    -0.82731137    -0.36083492     1.63181756
Ti     -1.28669078    -0.66891979     3.79350581    -0.41643093     0.29419036    -1.43021266
Ti      1.78327722     3.01874623     3.73279082     0.95558067    -1.61305853     1.23337510
Ti      1.56671423    -1.03511076     4.05112781    -0.21050092     0.75820189    -0.62770679
O       3.70046999     4.66240501     0.70504698    -0.63561987     1.13570400     1.67255593
O       4.15350700     0.84227899     1.07877100    -1.05024718    -0.98386436     0.45379011
O       0.00740102     4.68252401     0.58781797     0.91687115     0.29766804     1.10502815
O       7.03268601     1.05514800     0.20827797    -0.62015674    -0.41473246     3.56460471
O       5.41293425     4.72800722     4.13043180     1.04189289    -0.30766423    -2.22201862
O       5.52748525     1.06434622     3.73576781     1.15003327     0.18495392    -0.15184478
O       2.34064025     4.73784420     4.31070280    -0.77212776     0.15991676    -1.14015535
O       1.89926922     0.73616123     4.27932884     0.59669696     1.15402183    -2.29778983
O       3.43267820     2.59020823     3.04222583     0.02552952     0.83546820     1.24436194
O       0.06086623     3.04198722     3.03552883     0.38106257    -0.22177958    -0.04910140
O       5.88405001     6.55343198     1.78015798     0.05515018    -0.11353944     1.60130575
O       5.70087700     3.00386101     1.57702599    -1.57899423    -0.03458752    -0.33872651
O       1.87899702     6.68217498     2.19846900     0.30146119    -0.76915737    -1.42076102
O       1.79276600     2.07255397     0.69095901    -1.30062130     0.38951199     0.49117267
