# total energy = -4987.44051949 eV

CRYSTAL
PRIMVEC
        3.52457328     0.00000000     0.00000000
        0.00000000     4.51839108     0.00000000
        0.00000000    -0.00006635     5.07114608
PRIMCOORD
6 1
Ti      1.76228664     2.25916231     2.53557315     0.00000000     0.00000000     0.00000000
Ti      0.00000000     0.00000000     0.00000000     0.00000000     0.00000000     0.00000000
O       1.76228664     0.88055493     0.98829174    -0.00000000     0.17280468     0.13262809
O       1.76228664     3.63776969     4.08285456    -0.00000000    -0.17280468    -0.13262809
O       0.00000000     1.37858054     3.52386581     0.00000000    -0.17285636     0.13281398
O       0.00000000     3.13974408     1.54728050     0.00000000     0.17285636    -0.13281398
