# total energy = -4977.76623919 eV

CRYSTAL
PRIMVEC
        4.49472147     0.00000000     0.00000000
        0.00000000     2.34751836     0.00000000
        0.00000000    -0.00012382     6.26004806
PRIMCOORD
6 1
Ti      2.24736052     1.17369722     3.13002403     0.00000000     0.00000000     0.00000000
Ti      0.00000000     0.00000000     0.00000000     0.00000000     0.00000000     0.00000000
O       2.24736052     0.45747262     1.21999118     0.00000000    -0.28639889     1.54943861
O       2.24736052     1.88992187     5.04005693     0.00000000     0.28639889    -1.54943861
O       0.00000000     0.71617597     4.35001648     0.00000000     0.28632278     1.54898739
O       0.00000000     1.63121852     1.91003158     0.00000000    -0.28632278    -1.54898739
