# total energy = -4987.89064619 eV

CRYSTAL
PRIMVEC
        3.22803248     0.00000000     0.00000000
        0.75443327     5.00126042     0.00000000
       -0.00000474    -0.00006565     5.07220851
PRIMCOORD
6 1
Ti      1.99123021     2.50059729     2.53610420     0.00000000     0.00000000     0.00000000
Ti      0.00000000     0.00000000     0.00000000     0.00000000     0.00000000     0.00000000
O       1.76104310     0.97465914     0.98849869     0.42421495    -0.50987823    -0.61159214
O       2.22141732     4.02653544     4.08370964    -0.42421495     0.50987823     0.61159214
O       0.23018505     1.52591155     3.52460397    -0.42422267     0.51067527    -0.61186236
O       0.52424302     3.47528313     1.54760436     0.42422267    -0.51067527     0.61186236
