# total energy = -19961.64613942 eV

CRYSTAL
PRIMVEC
        7.60600008     0.00000000     0.00000000
        0.00000000     7.60600008     0.00000000
       -1.89786986    -1.89786986     4.85670466
PRIMCOORD
24 1
Ti      3.80900700     6.59721198     1.19853498    -0.75968259    -0.41032096     0.91699740
Ti      3.81018002     2.77305098     1.15241703    -1.72806993     1.11509248     0.73867847
Ti      0.02592302     6.72231599     1.25869101     0.53629349    -0.00693607    -0.61526881
Ti     -0.08427301     2.93147803     1.23022900     2.51840651    -0.35216464    -0.54008279
Ti      5.66559522     2.92863222     3.61804884     0.77733091    -0.97367301     0.75149028
Ti      5.71141022    -0.93896677     3.63457880    -0.39848540     1.00141343     0.62429648
Ti      1.93420021     2.80272920     3.68022282    -0.69712146    -0.43603380    -1.48900018
Ti      1.87153023    -1.05550075     3.71858881     0.55442646     0.81058531    -1.49494535
O       3.70299200     4.70417800     0.76760198     0.97239440     1.02475443     0.03612581
O       3.75988998     0.97007101     0.77354199     0.28679227    -2.26468944     0.43894969
O       0.04791700     4.77193899     0.73991500    -0.56349912     0.35693893    -0.09739265
O      -0.02203902     0.97261699     0.81324097     0.00419861     0.16230917    -0.11553591
O       5.72134425     4.80305921     4.06387284    -0.18850873    -0.55551327    -0.16188597
O       5.83356523     0.97439021     3.94797683    -0.51484972    -0.04880830     0.68688049
O       1.90326022     4.68452224     4.00500679     0.26842147     0.46554185     0.98967351
O       1.80835720     0.84448921     4.08104480     0.41488622     1.30920442    -0.52353902
O       3.79307522     2.77183721     3.19777081     0.71237633    -0.01380477     0.45155170
O       3.75828324    -0.93838779     3.23906082     0.19270682    -0.17315383    -0.34619891
O       0.04758124     2.88193624     3.16298381    -0.31911876     0.06383254     0.08631197
O       0.04088222    -0.99864875     3.17326181    -0.25726082    -0.19018380     0.49802055
O       5.69170699     6.66006199     1.72767101    -0.35240736    -0.15059985    -1.28217106
O       5.75733799     2.87842298     1.61988501    -1.65172125     0.25259890    -0.17946332
O       1.90836398     6.66849501     1.55766700     0.36141882    -0.00911456     0.24766855
O       1.96843200     3.01997398     1.60522199    -0.16892797    -0.97727487     0.37883934
