# total energy = -19953.89281537 eV

CRYSTAL
PRIMVEC
        4.87128619     0.00000000     0.00000000
        0.51718587     5.15866095     0.00000000
        0.00000000     0.00000000     8.72947497
PRIMCOORD
24 1
Ti      2.07209087     3.05701773     3.23857303     0.97715198     0.05800745    -0.09643055
Ti      3.31638134     2.10164326     5.49090224    -0.97715198    -0.05800745     0.09643055
Ti      4.41187199     2.10164501     1.12612973    -1.33139124    -0.75316947     1.21889361
Ti      0.97660024     3.05701623     7.60334568     1.33139124     0.75316947    -1.21889361
Ti      1.81349804     0.47768730     1.12616475     0.97723117     0.05831933     0.08135745
Ti      3.57497418     4.68097389     7.60331066    -0.97723117    -0.05831933    -0.08135745
Ti      0.71800733     0.47768540     5.49086727     1.33159230     0.75186952     1.23687077
Ti      4.67046483     4.68097574     3.23860805    -1.33159230    -0.75186952    -1.23687077
O       1.72390283     1.81645223     4.45458437    -1.23450690    -0.89425829    -0.38074787
O       3.66456938     3.34220881     4.27489090     1.23450690     0.89425829     0.38074787
O       1.07599079     1.81647309     0.08987484     1.27971385    -1.20442987    -0.02600775
O       4.31248147     3.34218800     8.63960022    -1.27971385     1.20442987     0.02600775
O       3.40597654     0.76287818     0.08984654     1.23463520     0.89437682    -0.38016088
O       1.98249567     4.39578286     8.63962853    -1.23463520    -0.89437682     0.38016088
O       4.05388863     0.76285737     4.45461272    -1.28041653     1.20512072    -0.02615738
O       1.33458353     4.39580367     4.27486259     1.28041653    -1.20512072     0.02615738
O       0.49156684     3.13779013     2.35804903    -0.70896216    -0.33998121    -0.96283350
O       4.89690533     2.02087091     6.37142624     0.70896216     0.33998121     0.96283350
O       2.81523724     2.02082286     2.00671636     0.06358495    -0.92372906    -0.50940000
O       2.57323497     3.13783813     6.72275880    -0.06358495     0.92372906     0.50940000
O       0.23297400     0.55845951     2.00668846    -0.70917428    -0.34024783     0.96223186
O       5.15549816     4.60020149     6.72278666     0.70917428     0.34024783    -0.96223186
O       2.31464214     0.55850755     6.37145409    -0.06393642     0.92364113    -0.50973527
O       3.07383008     4.60015349     2.35802117     0.06393642    -0.92364113     0.50973527
