# total energy = -19949.66516716 eV

CRYSTAL
PRIMVEC
        5.97799432     0.00000000     0.00000000
        0.00002975     5.75645130     0.00000000
        0.00000000     0.00000000    10.21534305
PRIMCOORD
24 1
Ti      2.16675308     3.41126766     3.78981950     0.10638072    -0.51587739     0.38050567
Ti      3.81127099     2.34518353     6.42552389    -0.10638072     0.51587739    -0.38050567
Ti      5.15564605     2.34518551     1.31781139     0.10760842     0.51591107    -0.38046350
Ti      0.82237807     3.41126597     8.89753218    -0.10760842    -0.51591107     0.38046350
Ti      2.16673826     0.53304212     1.31785237     0.10638072    -0.51587739    -0.38050567
Ti      3.81128587     5.22340923     8.89749120    -0.10638072     0.51587739     0.38050567
Ti      0.82236320     0.53304003     6.42548297    -0.10760842    -0.51591107    -0.38046350
Ti      5.15566087     5.22341139     3.78986048     0.10760842     0.51591107     0.38046350
O       1.89208344     2.02694429     5.21281150     0.97543679     0.94489567    -0.18682825
O       4.08594069     3.72950689     5.00253190    -0.97543679    -0.94489567     0.18682825
O       1.09696970     2.02696757     0.10517269    -0.97524884     0.94496612    -0.18746846
O       4.88105448     3.72948367    10.11017048     0.97524884    -0.94496612     0.18746846
O       4.08592581     0.85128118     0.10513957    -0.97543679    -0.94489567    -0.18682825
O       1.89209832     4.90517000    10.11020360     0.97543679     0.94489567     0.18682825
O       4.88103961     0.85125796     5.21284468     0.97524884    -0.94496612    -0.18746846
O       1.09698440     4.90519328     5.00249878    -0.97524884     0.94496612     0.18746846
O       0.21721256     3.50140001     2.75941908    -0.04152719    -0.13482201     0.17246118
O       5.76081157     2.25505123     7.45592432     0.04152719     0.13482201    -0.17246118
O       3.20621501     2.25499765     2.34828510    -0.04122920     0.13502667    -0.17263679
O       2.77180906     3.50145359     7.86705818     0.04122920    -0.13502667     0.17263679
O       0.21719768     0.62317431     2.34825245    -0.04152719    -0.13482201    -0.17246118
O       5.76082639     5.13327693     7.86709077     0.04152719     0.13482201     0.17246118
O       2.77179424     0.62322789     7.45595692     0.04122920    -0.13502667    -0.17263679
O       3.20622989     5.13322330     2.75938648    -0.04122920     0.13502667     0.17263679
