# total energy = -19960.41678500 eV

CRYSTAL
PRIMVEC
        7.60600008     0.00000000     0.00000000
        0.00000000     7.60600008     0.00000000
       -1.89786986    -1.89786986     4.85670466
PRIMCOORD
24 1
Ti      3.93164499     6.52612701     1.22183497    -1.70051566     0.33813670    -0.98562608
Ti      3.72481299     2.72276099     1.21986601     0.00374610    -0.35097834    -0.47029839
Ti      0.10045901     6.86620902     1.13525798     0.91497908     0.19281944     1.20202151
Ti     -0.05644898     2.90551902     1.28248800    -0.07978187     0.40271204    -0.41982402
Ti      5.63489621     3.04458723     3.68408381     1.03788583    -2.39371207    -0.24827224
Ti      5.73922224    -0.89537680     3.54500280    -0.09628554     2.98113120     0.53221958
Ti      1.93250224     2.71713520     3.64103582    -2.23628362     0.32202256     0.23103350
Ti      1.85562321    -1.01653680     3.60959279     0.44351546    -0.63514756     0.36925169
O       3.64456300     4.55799098     0.87967002     0.86784457     1.79032742    -0.54861371
O       3.66513402     0.83990600     0.72919900     0.52033645    -0.32236529    -0.02701665
O       0.09454000     4.71397302     0.75566300    -0.67302198     1.90348942     0.32029864
O       0.15559298     1.10585001     0.81498900    -0.36586554    -3.20746344    -0.28390672
O       5.92198821     4.88054325     4.02913780    -0.56088688    -0.62180585     0.33538459
O       5.68320221     0.91703322     4.16976983    -0.54702785     0.20268631    -1.33952596
O       1.76962423     4.59665124     4.09025179     0.41482194     0.44652134    -0.06990755
O       1.80724424     0.83276222     4.09173381     0.57096998     0.23847145    -0.26749767
O       3.66233224     2.81531722     3.37291483     2.15572502     0.13398615    -0.21509291
O       3.87828323    -1.07457479     3.21190784    -0.04658558    -0.23155261    -0.05444519
O      -0.16224379     2.79150424     3.19432179     1.02678534     0.15433361     0.53106644
O       0.05006821    -0.81075278     3.12767081    -0.52961171    -0.59989850    -0.57138727
O       5.71819999    -0.54177400     1.52794401     0.81146823    -1.53890120     0.41326205
O       5.56590097     2.84594901     1.73375099     0.34166091     0.00404640    -0.36675849
O       2.00383301     6.61324398     1.61674202    -1.24861789     0.17856447     0.18330712
O       1.90623901     2.65180002     1.58525999    -1.02525451     0.61257635     1.75032772
