# total energy = -19072.16198864 eV

CRYSTAL
PRIMVEC
        5.17600016     0.00000000     0.00000000
        0.00000000     5.50899976     0.00000000
        0.00000000     0.00000000     9.26300011
PRIMCOORD
22 1
Ti      1.96831500     3.68533399     3.29465602    -1.36431603    -0.67754250     2.83400568
Ti      3.85998899     2.18587802     6.01529899     0.18698252     1.20404086    -0.55796019
Ti      4.28169003     2.37205602     1.73772898     0.45837053     0.21798052    -0.74044662
Ti      1.42163500     2.48506002     7.96928402    -0.38352954     0.66478237    -0.95555881
Ti      1.54488599     0.69295999     1.30597903     0.54537283     0.45649516    -0.81165489
Ti      3.07118399     0.03510800     7.70784099    -0.17999657    -1.79667933     0.59032833
Ti      0.49710900     5.23216899     6.38866100     1.06226992    -1.99079615    -1.94709432
Ti      4.40713800     5.02418302     3.51642902     0.67192618     0.56767408     2.03438022
O       3.66262498     3.41930600     4.28488398    -0.56805897    -1.56640302     1.30545652
O       0.32529002     2.20497301     0.24006798    -0.41345205     0.05053557     0.72639219
O       0.25620799     3.21692200     6.61738501     0.19730679     0.38819764    -0.60960467
O       2.70188098     1.22542602     9.16465601     1.41890160     0.35831910     0.37867067
O       1.27373800     5.06833900     8.07159499    -0.13116282    -2.09757204     2.10601298
O       4.15255300     0.43786602     5.21830201    -0.76435274    -0.06352993    -1.72155604
O       1.04942500     4.96572899     4.57505298     0.40734157    -1.29109227    -0.46421773
O       0.20291699     3.80638201     2.44360502    -0.30839751    -0.65176975    -1.45288568
O       4.70868500     0.96461001     7.30558002    -0.58337761     2.13733005     2.01872219
O       2.28585500     2.30256700     2.11622501     1.47882298    -0.99552740    -0.15076543
O       3.00950902     3.36479498     7.27234197    -0.34539184     1.40653099     0.93529697
O       0.09229402     0.97127002     2.48517300    -1.37194733     0.35935140     0.21073541
O       2.16197900     1.19947602     6.60365497    -1.15712669     0.50452570    -1.31623433
O       2.67749300     5.03116101     2.47209402     1.14381454     2.81514895    -2.41202270
