# total energy = -4984.52431567 eV

CRYSTAL
PRIMVEC
        3.23975963     0.00000000     0.00000000
        0.00000000     3.38414508     0.00000000
        0.00000000    -0.00005915     4.40643852
PRIMCOORD
6 1
Ti      1.61987967     1.69204292     2.20321921     0.00000000     0.00000000     0.00000000
Ti      0.00000000     0.00000000     0.00000000     0.00000000     0.00000000     0.00000000
O       1.61987967     0.65950850     0.85874995     0.00000000    -2.03072051    -2.25317166
O       1.61987967     2.72457734     3.54768843     0.00000000     2.03072051     2.25317166
O       0.00000000     1.03251076     3.06197012     0.00000000     2.03061561    -2.25405664
O       0.00000000     2.35157508     1.34446830     0.00000000    -2.03061561     2.25405664
