# total energy = -19936.69948536 eV

CRYSTAL
PRIMVEC
        7.01961462     0.00000000     0.00000000
        0.00002649     4.48259545     0.00000000
        0.00000000     0.00000000    10.72091000
PRIMCOORD
24 1
Ti      2.54428817     2.65638189     3.97738116     0.39547027     0.34111095     0.90165459
Ti      4.47535248     1.82621350     6.74352895    -0.39547027    -0.34111095    -0.90165459
Ti      6.05397471     1.82621501     1.38303106     0.39555383    -0.34129787    -0.90145687
Ti      0.96566600     2.65638056     9.33787911    -0.39555383     0.34129787     0.90145687
Ti      2.54427516     0.41508423     1.38307407     0.39547027     0.34111095    -0.90165459
Ti      4.47536549     4.06751128     9.33783616    -0.39547027    -0.34111095     0.90165459
Ti      0.96565293     0.41508260     6.74348595    -0.39555383     0.34129787    -0.90145687
Ti      6.05398772     4.06751290     3.97742411     0.39555383    -0.34129787     0.90145687
O       2.22176155     1.57839801     5.47079833     1.30733548     0.54896955    -0.58143360
O       4.79787916     2.90419732     5.25011178    -1.30733548    -0.54896955     0.58143360
O       1.28810522     1.57841612     0.11037778    -1.30707477     0.54901326    -0.58204398
O       5.73153555     2.90417928    10.61053199     1.30707477    -0.54901326     0.58204398
O       4.79786615     0.66289954     0.11034299    -1.30733548    -0.54896955    -0.58143360
O       2.22177456     3.81969580    10.61056678     1.30733548     0.54896955     0.58143360
O       5.73152248     0.66288149     5.47083307     1.30707477    -0.54901326    -0.58204398
O       1.28811811     3.81971390     5.25007699    -1.30707477     0.54901326     0.58204398
O       0.25505485     2.72656866     2.89598525    -1.46385170     0.57369869     0.90108380
O       6.76458586     1.75602667     7.82492480     1.46385170    -0.57369869    -0.90108380
O       3.76487024     1.75598500     2.46450385    -1.46360847    -0.57356216    -0.90150829
O       3.25477041     2.72661039     8.25640604     1.46360847     0.57356216     0.90150829
O       0.25504178     0.48527088     2.46446963    -1.46385170     0.57369869    -0.90108380
O       6.76459887     3.99732445     8.25644025     1.46385170    -0.57369869     0.90108380
O       3.25475739     0.48531261     7.82495896     1.46360847     0.57356216    -0.90150829
O       3.76488326     3.99728272     2.89595104    -1.46360847    -0.57356216     0.90150829
