# total energy = -19958.22630245 eV

CRYSTAL
PRIMVEC
        7.60600008     0.00000000     0.00000000
        0.00000000     7.60600008     0.00000000
       -1.89786986    -1.89786986     4.85670466
PRIMCOORD
24 1
Ti      3.65728802     6.87815398     1.34386198     0.98354425    -2.74659303    -1.63066159
Ti      3.64577799     3.04568300     1.17295101     2.23358988     0.91109440    -0.01326998
Ti      0.00564600     6.53096999     1.37982100    -1.44074699    -2.38634663    -1.50113374
Ti      0.14946701     2.67839800     1.26961598    -2.31271021     2.24185418    -1.02691801
Ti      5.81717825     2.71737323     3.51193181     0.78544248    -0.02053644     1.31648784
Ti      5.58800524    -1.14084678     3.65957279     1.33367027    -0.77780810    -0.92830691
Ti      2.05768420     2.92888522     3.62463683    -1.14685076     1.49826079     2.57617845
Ti      1.79442725    -0.85523177     3.64830883     0.40547700    -1.95728463     0.16332450
O       3.73271901     4.96083500     0.79066098     0.30819337    -1.59711588    -0.10219445
O       3.65494699     0.96032299     0.72668202     0.47007754     1.33903231     0.68106774
O       0.00031899     4.53475502     0.67218301     0.73404894     2.54433506     0.83369748
O       0.10727598     0.67088197     0.71440701    -0.42035393     1.24012425     0.32065319
O       5.57343021     4.55664121     3.67731679     0.03293996     2.76449074     1.77951129
O      -1.62447176     0.87933823     4.16217682    -0.55514843    -2.07435780    -1.05046032
O       1.78093222     4.79652123     3.70801680     1.37820745     1.05387089     1.74475511
O       1.65233522     0.98283625     4.06953784     0.90069120     1.24994484     0.62906382
O       3.88159223     2.78319023     3.17688382    -0.64412560    -0.75427427    -0.73723659
O       3.77360223    -0.71210779     3.13882481     0.54576339     0.29021955     1.74509449
O       0.12229625     3.04162320     3.25598079    -0.69373917    -1.64959597    -0.59761896
O       0.01853724    -0.89412778     3.26691581    -1.34697136    -0.32341353    -0.10201653
O       5.81733499     6.31154400     1.67277802    -1.64369349     1.49247400     0.10201190
O       5.89280699     2.92218202     1.60636602    -1.05580385    -1.52665555    -0.91890773
O       1.86076200     6.67891800     1.69299900     0.91389639     0.07699480    -0.71362177
O       1.95460100     3.12847997     1.78678799     0.23460142    -0.88871448    -2.56949949
