# total energy = -79406.49784520 eV

CRYSTAL
PRIMVEC
       10.35150501     0.00002646     0.00000000
        0.00002858    11.01713167     0.00000000
        0.00000000     0.00000000     9.26345890
PRIMCOORD
95 1
Ti      7.01455281     8.82354283     3.46932778    -0.01538883     0.09912918     0.09539902
Ti      7.14867239     3.23023816     3.42126885     0.07572699    -0.03070747    -0.06970752
Ti      1.84033358     8.81868655     3.46184285     0.11573080    -0.17770315    -0.19156705
Ti      1.76370272     3.13738310     3.50729197     0.15106471     0.26468977    -0.23160377
Ti      8.47997053     7.72854330     5.79483950     0.17004434    -0.07040917     0.07311757
Ti      8.50371773     2.21986828     5.83074547    -0.09308940     0.06878732     0.01055618
Ti      3.28318600     7.71983856     5.81253856     0.04205221    -0.21207932    -0.06975920
Ti      3.32835839     2.19596022     5.82833213     0.06177283     0.04234891     0.12940856
Ti      9.53543496     7.77832636     1.20346612    -0.06930051    -0.09525118     0.02667700
Ti      9.66224247     2.17099304     1.15160741     0.09216174     0.14054504     0.07100104
Ti      4.47180441     7.69404650     1.21664757    -0.29390060    -0.17567712     0.10538622
Ti      4.49061508     2.23478354     1.21318586    -0.22761033     0.04012748     0.03339581
Ti      5.90033250     8.81501180     8.10233229    -0.05789741     0.00449275     0.10579091
Ti      5.92430913     3.29625483     8.09191668    -0.04123100    -0.01502322     0.02616381
Ti      0.67415593     8.89514259     7.95103975    -0.05479871     0.19608346    -0.18231211
Ti      0.73047864     3.29765457     8.07394403     0.14341722     0.14349692     0.03285794
Ti      7.03348984     6.02728630     1.19208537    -0.16517930    -0.04638760    -0.01663170
Ti      7.02869988     0.54128084     1.23420503    -0.06463524    -0.03777543    -0.12571259
Ti      1.73294133     6.30886782     0.93662445     0.49918578    -0.65125450     0.68750398
Ti      1.88222566     0.51754020     1.16409484     0.01042171    -0.03527915    -0.05815298
Ti      8.41910884    10.47501395     8.10120807    -0.11982194     0.00162597     0.11789695
Ti      8.50849476     4.95349434     8.08955010     0.02994076    -0.01509804     0.04185603
Ti      3.33094095    10.46209959     8.09878354    -0.01239555    -0.02800909    -0.04895819
Ti      3.31635470     4.95268235     8.08092002    -0.18400518    -0.04676633     0.09424922
Ti      5.90047759     6.13709408     5.96470262    -0.07166104     0.21353791     0.12149727
Ti      5.90384785     0.55131268     5.82974214    -0.10168305    -0.02698759    -0.03989968
Ti      0.73397210     6.02501028     5.81053759     0.04374939     0.01293651    -0.14167195
Ti      0.69772535     0.52041239     5.85707944     0.06936222    -0.04443382    -0.02663947
Ti      9.63361543    10.48500191     3.44804324     0.01022142     0.05848336    -0.13873729
Ti      9.65739766     5.00075244     3.38743391     0.19739060    -0.01455811    -0.04443999
Ti      4.42753677    10.46936035     3.45884029     0.02786743    -0.03882367    -0.07211767
Ti      4.75298555     4.91576087     3.65175102    -0.60375078     0.12208914    -0.48125953
O       6.82552723     7.44453050     4.74866791    -0.05759530     0.05193913    -0.13379126
O       6.83347557     1.93188757     4.72548028    -0.07881077    -0.05963393     0.00660517
O       1.63795295     7.45404967     4.74598538    -0.01211247     0.02569716    -0.03553883
O       1.60264005     1.87831955     4.72660256    -0.05655118    -0.07658933     0.02748922
O       8.72080183     9.08667335     4.54145096    -0.03854419    -0.06302907     0.00426135
O       8.75365414     3.56472594     4.53947324     0.00098190    -0.00301462    -0.03785848
O       3.52936256     9.08381889     4.54449664    -0.02184539     0.01692558    -0.03951607
O       3.46448049     3.64277866     4.35771782    -0.09440580    -0.10973421     0.19135879
O       6.10920031     7.40933201     0.12067519    -0.05935445     0.10473495    -0.04709749
O       6.12229765     1.91452774     0.08186053     0.01829649     0.04442688     0.09248030
O       0.89541269     7.47425566    -0.02986064    -0.38378845     0.52076145    -0.40660520
O       0.95109702     1.91449299     0.08306159     0.00604235     0.02172429     0.01879888
O       9.37984495     9.12064690     9.15909110     0.02821453    -0.10260557     0.02316436
O       9.41733911     3.56585754     9.16487087    -0.04285928     0.02704699     0.00183474
O       4.20497906     9.05633194     9.18926019    -0.01962138     0.08156854    -0.00880629
O       4.22902825     3.57618977     9.18142777     0.15153136    -0.04226869    -0.00463699
O       8.70377431     6.32963289     0.10879253     0.00238496    -0.00621642    -0.10398882
O       8.69157389     0.82704527     0.09346213     0.03305900    -0.07055958    -0.05138017
O       3.53061165     6.32429100     0.08476460     0.07159471    -0.01989700    -0.08920986
O       3.53581023     0.80957321     0.11369730     0.01593570     0.06754753     0.04284565
O       6.78430890    10.18787744     9.19476584     0.15999595    -0.01896344    -0.06570225
O       6.82905922     4.66481947     9.17213064    -0.01183119    -0.00338794     0.04896642
O       1.62181912    10.19241077     9.16790902     0.00398675     0.17054108     0.02074495
O       1.66124044     4.68781389     9.21501212    -0.01444935    -0.20240940    -0.20205459
O       9.41407574     6.31125201     4.72044349     0.00327996     0.00323573     0.01940232
O       9.39530430     0.81437739     4.72906423     0.10859264    -0.02534774     0.06935116
O       4.23085567     6.33151040     4.74669660     0.17571337    -0.00961490     0.12210611
O       4.20410935     0.83434161     4.70521767     0.07846598     0.08123609     0.01522556
O       6.11097835    10.19677728     4.54681234     0.02502301     0.01461184     0.00003342
O       6.21725003     4.69959995     4.60763958     0.31074827    -0.11775091     0.28240571
O       0.94800421    10.18320767     4.53623979    -0.06236856    -0.02082954     0.10346714
O       1.05174412     4.74900799     4.42502877    -0.22529094    -0.05341495     0.10539881
O       5.34450189     8.84075536     2.51497121     0.09215249    -0.01142599     0.01729068
O       5.41940845     3.35743770     2.51873803     0.14659716    -0.12603527     0.00458428
O       0.19109804     8.86177618     2.47020253    -0.00660105     0.03979426     0.07292474
O       0.17222349     3.37271056     2.47756885    -0.10716619    -0.05669799    -0.07201200
O      10.17438524     7.66887430     6.73495535    -0.03370358     0.00586906     0.02070767
O      10.18169094     2.14357899     6.77135797    -0.06410380    -0.08313279    -0.05651801
O       4.97638808     7.65904562     6.79407914     0.02877323    -0.05450509    -0.02843615
O       4.96204743     2.16862031     6.74559049     0.08027090     0.03788265    -0.05473238
O       7.93088368     7.67098398     2.13219201    -0.08267205     0.02297179     0.10228855
O       7.96406085     2.12245938     2.14286008     0.07858400    -0.03452273    -0.05329307
O       2.74494555     7.51127130     2.15445429     0.01685822     0.18316083     0.02697525
O       2.78837032     2.28313425     2.11940801    -0.05001620    -0.19797116    -0.07445429
O       7.54695908     8.84375580     7.13403352     0.03722907     0.10839955     0.04434538
O       7.58711603     3.34261944     7.12314087    -0.03939960     0.10246596     0.11456197
O       2.38051898     8.88759255     7.12264205    -0.01536852     0.02463966    -0.04470404
O       2.39234684     3.34950172     7.10129555     0.12957593     0.11183892     0.03843749
O       5.32332162     6.04115143     2.15164606     0.20513117     0.07703079    -0.04042033
O       5.35975066     0.59004479     2.14334887     0.01778227     0.02854800    -0.00323213
O       0.19586953     6.14410469     2.08901145     0.04835116     0.08022102    -0.08428928
O       0.21094549     0.61563454     2.15310601    -0.01943883     0.00820234    -0.01826178
O      10.11797082    10.42991793     7.10924432     0.04450735    -0.15622311     0.10493781
O      10.18125473     4.88300220     7.11455503    -0.01723308     0.10286216    -0.02569613
O       4.98268139    10.41811995     7.14453112     0.02744191    -0.00699829    -0.03224447
O       5.00252568     4.89446091     7.13259227    -0.02403597     0.01499031     0.06091203
O       7.58564781     6.10506566     6.79832895    -0.01692866     0.01756193    -0.03036397
O       7.54998832     0.60353344     6.76977094     0.08440421    -0.04655035     0.05683040
O       2.39594897     6.10346562     6.77511596    -0.02328109     0.02018780    -0.01087834
O       2.41328173     0.62910263     6.73493253    -0.02431699    -0.05864303     0.13195523
O       7.95618421    10.40848574     2.50996548    -0.07826132    -0.01809080    -0.04612689
O       7.97617612     4.91188050     2.49510980    -0.05712813    -0.05431175     0.02800292
O       2.76987857    10.38812374     2.48116056     0.04381727     0.04560136     0.04756800
