# total energy = -4983.61485788 eV

CRYSTAL
PRIMVEC
        3.56737599     0.00000000     0.00000000
        1.67875899     3.14768799     0.00000000
       -2.62310101    -1.57386411     4.71128890
PRIMCOORD
6 1
Ti      1.25898507     2.36088722     1.17782191     0.00042140    -0.00042140     0.00000000
Ti      1.36404877    -0.78706345     3.53346641    -0.00042140     0.00042140     0.00000000
O       0.41972671     0.78691799     0.76743037     0.00083741     0.00078187    -3.21353330
O       2.20330698     0.78690577     3.94385801    -0.00083741    -0.00078187     3.21353330
O      -0.41969281    -0.78689761     3.12307482     0.00078187     0.00083741    -3.21353330
O       3.04272643     2.36072128     1.58821351    -0.00078187    -0.00083741     3.21353330
