# total energy = -19517.82196768 eV

CRYSTAL
PRIMVEC
        7.60600008     0.00000000     0.00000000
        0.00000000     7.60600008     0.00000000
       -1.89786986    -1.89786986     4.85670466
PRIMCOORD
23 1
Ti      3.81853801     6.73925098     1.21016598    -0.52336418     0.09410344     0.49253690
Ti      3.85465298     2.93296200     1.19080100    -0.31447509     0.32695625     1.18489230
Ti     -0.07321300     6.52925202     1.34660899     1.42702758     0.82127210    -1.64751184
Ti      0.11479400     2.81285501     1.02158203    -0.78403532    -0.80713463    -0.63785185
Ti      5.63476720     2.86254824     3.63300582    -1.40346932    -2.52099844    -0.06504636
Ti      5.61018025    -1.19740175     3.60540483    -0.68821258     1.98793734     1.61151227
Ti      2.01580622     2.91388923     3.63343181    -0.59360752     0.12260413     0.80398811
Ti      1.84848921    -0.88704379     3.68034882     0.58490896     0.27744142    -0.79609714
O       3.95431500     4.79070901     0.71169900    -0.39310279     0.99391712     1.20561720
O       3.97140202     1.12342901     0.90008102    -0.15948867    -1.58652191    -0.64448376
O       0.33258801     4.70600101     0.56279101     0.18480634     0.42091700     3.02683360
O      -0.25161098     0.93434102     0.74786398     1.02411653    -0.83550779     0.19745565
O       5.47828023     4.62597221     3.98262683     0.14625443     1.72814603     0.85633039
O       5.52485423     0.84747721     3.92968381     0.94308227     0.53926261     0.87402679
O       1.98494222     4.88442222     4.13497383    -0.65775760    -0.72264044    -0.55322267
O       1.72616021     1.04005423     4.12917379    -0.26545596    -0.48587980    -1.01699818
O       3.75780322     2.79753025     3.32084479     1.21614382    -0.00427909    -0.66669115
O       3.73557323    -0.98532280     3.15211382    -0.54664990     0.09438060     0.27233520
O      -0.09477575    -1.17872079     3.22724382     1.26849510     0.06877626     0.92035629
O       5.73439403     6.64320399     1.71860901    -1.55275045    -0.32425634    -1.42924104
O       5.88040001     2.98649801     1.89642098     1.39343919     0.28324980    -3.42821561
O       1.80631299     6.85518599     1.66554899     0.58052883    -0.18304153     0.05310436
O       1.94304700     2.91294698     1.69018399    -0.88643417    -0.28870414    -0.61362948
