# total energy = -19518.51250666 eV

CRYSTAL
PRIMVEC
        7.60600008     0.00000000     0.00000000
        0.00000000     7.60600008     0.00000000
       -1.89786986    -1.89786986     4.85670466
PRIMCOORD
23 1
Ti      3.76443202     6.69350001     1.23288102     0.33684703     0.45092667     0.47166802
Ti      3.73234202     2.88511802     1.16431499     0.88253534    -0.38716920     2.20498763
Ti      0.04493900     6.61649202     1.15560701    -0.56381665     0.78343728    -0.71920827
Ti     -0.03417702     2.81229001     1.10377098    -1.05042022    -0.83167813     1.49094548
Ti      5.74336220     2.70317821     3.70345079    -2.06518796     1.65453892    -1.69468131
Ti      5.76816824    -0.99673075     3.52578684    -0.39075717    -0.69748321     0.84875952
Ti      1.98056424     2.91906025     3.74821580     1.59862306    -0.18200460    -0.46682355
Ti      1.94049821    -0.94834876     3.68711980    -0.21719736     0.71033076    -0.03042799
O       3.93613897     4.75531499     0.85030100    -0.61912907     0.53412271     0.57350637
O       3.59359100     0.97953302     0.82617200     0.08283120     0.22139006    -0.30771231
O       7.24705699     4.68990699     0.70652000     1.21327446     0.86295536     1.10414112
O       0.10246602     0.90457601     0.69525598     0.10116215    -0.58307551     0.16910666
O       5.60629720     4.69433922     3.97483183     1.06701078     0.79834942    -0.04177710
O       5.69310423     0.90789221     4.11301483     0.66185079    -0.32426765    -1.71849899
O       1.95393921     4.84418221     4.10846782    -0.32162944    -0.92292430    -0.21220479
O       1.98679625     1.00178820     4.15020281    -0.82367120    -0.13775642    -0.49861936
O       3.78205621     2.88053921     3.29446483    -0.05771332    -0.14502364    -0.95590231
O       3.76309420    -0.74270276     3.25404379     0.22859275    -0.68096721    -0.49030904
O       0.07851323    -0.78104377     3.16475481    -0.74482881    -0.57961840    -0.23578182
O       5.65173299     6.85351802     1.60611900     0.82677427    -0.54079678     0.28869334
O       5.75609098     2.63636799     1.65764901    -0.24507302     0.10701398     0.58723170
O       1.89909697     6.50991001     1.49972399    -0.30927966    -0.29109809     0.56798467
O       1.69231498     2.91469602     1.86894498     0.40920150     0.18079824    -0.93507740
