# total energy = -39034.65843969 eV

CRYSTAL
PRIMVEC
        7.60600008     0.00000000     0.00000000
        0.00000000     7.60600008     0.00000000
       -3.79573973    -3.79573973     9.71340985
PRIMCOORD
46 1
Ti      2.05961146     4.59296044     6.18992361    -0.75590872     1.50745094     0.02657596
Ti      3.65535398     6.70983799     1.40923701    -0.98185864     1.95903735    -2.14818114
Ti      1.98224247     0.70490347     6.10261762     1.09407628     1.23839312     0.14824549
Ti      3.81963298     2.93233900     1.05279301    -0.22935097    -2.14594608     1.46465903
Ti     -1.83723356     4.67418143     6.13076562     0.05442410    -0.24911633    -0.85519114
Ti     -0.21782401     6.66314598     1.34237298     1.13347536     0.23526811    -1.53818746
Ti     -1.68872155     0.93360345     5.88236860    -0.92544039     0.88492673     0.91892932
Ti      0.05631102     2.98751901     1.16956898    -0.20328332    -0.43070879    -0.02715009
Ti      3.94722143     0.97107243     8.35066963     0.35707134     0.66237993     0.36207522
Ti      5.61018999     2.82183202     3.39598500    -0.52703546    -2.04313534     0.36698269
Ti      3.75239847    -2.78729956     8.60599464    -0.33315930    -0.36198189    -0.63226741
Ti      5.57451698    -1.06879400     3.65773099     0.14238800     0.64131461     0.38673340
Ti      0.17687543     1.10640644     8.36800363    -0.87310993    -0.49644369     2.32069220
Ti      1.83033002     2.72679698     3.54534898     0.89416805     0.19154211     0.23926104
Ti     -0.03147155    -2.91094156     8.50377061     1.13650541     0.80929256     1.46317087
Ti      1.75803499    -1.01626401     3.69995500     0.18138188    -0.00195327     0.19454696
O       1.78247647    -1.01526656     5.66435763    -0.30529573    -1.03681445     0.47090029
O       3.53968700     1.01209599     0.94572701     0.22439697     0.17448515    -1.61795545
O      -1.94205654     2.84319147     5.49889062     0.33158321     0.75304014     0.82209537
O      -0.28300701     4.82678101     0.99241901     0.65120822     0.20558446    -0.25570042
O      -1.69182655    -0.98355355     5.62139764    -0.20707184    -0.70191194    -0.50761566
O       0.07295798     0.98749502     0.69177400     0.18287621    -0.28963719     1.80992720
O       3.56816245     2.88436347     8.96463764     1.06228560    -0.51696676    -0.51543490
O       5.53522801     4.55128901     3.80851301     0.04005729     3.04676583     0.39199799
O       3.96196446    -0.91782153     8.97073165     0.56951782     1.92764983    -0.45299512
O       5.50596599     0.93023402     4.06349098     0.42371076    -1.24856801    -0.22515236
O       0.01798943     2.87663346     9.19830263     0.48329198    -0.83258265    -2.02843325
O       2.00564703     4.60288199     4.32346201    -0.32894526    -0.86819295    -1.54221638
O       0.03786046    -0.80387956     8.97659663    -0.14882708     0.53603741    -1.04714463
O       1.95281000     0.86837399     4.19283100    -0.34222219     0.79113362    -0.39353191
O       2.12435445     0.88886845     8.15038361    -1.31701492    -0.23203315    -0.55762543
O       3.67899302     2.52002901     3.01956598     1.30150936     1.06385089     1.14893001
O       1.86523445    -2.42343056     8.15202364     0.46076911    -1.85063446    -0.05027666
O       3.67992601    -0.90826300     3.19583302     0.24818122    -0.98314830     2.91715545
O      -1.63181055     0.93556643     7.92249163    -2.20328993     0.20307300     0.81046292
O      -0.11181298     2.49365000     3.22271099     1.55419464     0.93604671    -0.79339696
O      -1.79472057    -2.72234157     7.99669964    -1.53851991    -0.55493451     0.96088357
O      -0.08177498    -0.96162000     3.35374702    -0.73182853    -0.25725671    -0.24817840
O       3.83676446     5.04301543     6.55683565     0.12704520    -1.37161385    -0.35625039
O       5.57169499    -0.65210798     1.72070503     0.53486088    -0.65452752     0.20739786
O       3.91199045     1.04409545     6.44105960    -0.04634415    -0.40041373     0.27291087
O       5.77515798     2.72538502     1.31218601    -1.67680417     0.82441322     1.64996004
O       0.03699044     4.64552547     6.53875863     0.72014621    -0.79115805    -0.23544809
O       1.73888899     6.69154798     1.70461899     0.15414643    -0.72433119     0.01570919
O       0.19370845     1.32970844     6.58990462     0.94187231    -0.06617662    -3.15748349
O       1.94465998     3.19736700     1.60287001    -1.32983341     0.51850223    -0.18438596
