# total energy = -19517.44832991 eV

CRYSTAL
PRIMVEC
        7.60600008     0.00000000     0.00000000
        0.00000000     7.60600008     0.00000000
       -1.89786986    -1.89786986     4.85670466
PRIMCOORD
23 1
Ti      3.76600002     6.76035801     1.17964499    -0.28445488    -0.59881915    -0.32638341
Ti      3.83486101     2.86173903     1.25897200     0.12047731     0.38764897     0.36282367
Ti     -0.02312102     6.56278497     1.16496303     1.07090549     1.28564925     1.00488648
Ti      0.07314399     2.74160198     1.17710701    -0.41893802    -1.23280303     0.11852636
Ti      5.75388320     2.81328825     3.71908782    -1.44617433    -0.68171694    -0.47054162
Ti      5.62634820    -1.01979875     3.45015883    -0.26836362     0.42172998     3.49454598
Ti      2.01115322     2.92265225     3.74647883    -0.13242292     0.59180132    -0.87575611
Ti      1.76429923    -0.83281275     3.66535982     0.47145308    -0.19997045    -3.07428565
O       4.05209901     4.82661501     0.81264401    -0.64554691    -0.13533495     0.74307583
O       3.94550599     0.95144598     0.53126999     0.57138829     0.99391172     3.98765830
O      -0.17862801     4.67331199     0.92867999     1.28771590     0.64276780    -0.28361901
O       0.05200399     0.81414603     0.72936802    -0.10589092     1.61371802     0.13875658
O       5.55884122     4.66811123     4.15575579     0.23309836    -0.27288516    -1.93032815
O       5.57325125     0.95910424     4.15106781     0.75953887    -0.78117779    -1.07710519
O       1.79433221     4.84011522     3.87257579     0.11752851    -1.73825330     0.67534009
O       1.78997020     1.06292220     4.07506181    -0.77286927    -0.58879775     0.64695793
O       3.73968922     2.60234121     3.22252583     2.12458998     0.83377384    -0.64834427
O       3.70287521    -0.97168876     3.12643883     2.05165521     0.04360773     0.39195634
O      -0.04726579    -1.04568277     3.28450180    -0.07138696     0.21890046    -0.55420586
O       5.80623698     6.91478299     1.68585399    -1.58123109    -0.39646760    -1.22359848
O       5.81558199     2.80812099     1.76182998    -0.37843053    -0.44630614     0.28430472
O       2.02478001     6.92055801     1.56787398    -2.17870092    -0.81703775    -0.53820742
O       1.90661002     2.64986402     1.74347002    -0.52394037     0.85606120    -0.84645684
