# total energy = -19942.06954418 eV

CRYSTAL
PRIMVEC
        5.25210084     0.00000000     0.00000000
        2.39423710     5.05111412     0.00000000
        0.00000000     0.00000000     9.65985464
PRIMCOORD
24 1
Ti      3.32245658     2.99328552     3.58373715     2.99570782    -4.05351404     1.17165137
Ti      4.32388118     2.05782853     6.07611754    -2.99570782     4.05351404    -1.17165137
Ti      5.50501282     2.05783024     1.24615161    -6.40232487     0.80230430     1.57973393
Ti      2.14132503     2.99328401     8.41370324     6.40232487    -0.80230430    -1.57973393
Ti      2.12533815     0.46772854     1.24619033     2.99570782    -4.05351404    -1.17165137
Ti      5.52099964     4.58338566     8.41366453    -2.99570782     4.05351404     1.17165137
Ti      0.94420648     0.46772668     6.07607883     6.40232487    -0.80230430     1.57973393
Ti      6.70213136     4.58338751     3.58377592    -6.40232487     0.80230430    -1.57973393
O       2.50537460     1.77858313     4.92934989     0.21551200     1.23028643    -1.25752445
O       5.14096315     3.27253093     4.73050486    -0.21551200    -1.23028643     1.25752445
O       1.80681927     1.77860353     0.09945363     1.36875119    -0.67782532    -0.22248304
O       5.83951856     3.27251061     9.56040085    -1.36875119     0.67782532     0.22248304
O       3.94384471     0.74697384     0.09942225    -0.21551200    -1.23028643    -1.25752445
O       3.70249306     4.30414026     9.56043218     0.21551200     1.23028643     1.25752445
O       4.64240010     0.74695348     4.92938122    -1.36875119     0.67782532    -0.22248304
O       3.00393762     4.30416064     4.73047348     1.36875119    -0.67782532     0.22248304
O       1.64713166     3.07237397     2.60936774     0.41732851    -0.48751116    -0.35729708
O       5.99920605     1.97874009     7.05048701    -0.41732851     0.48751116     0.35729708
O       3.75478578     1.97869309     2.22059033     1.97576521    -0.69104722    -1.70141426
O       3.89155198     3.07242097     7.43926420    -1.97576521     0.69104722     1.70141426
O       0.45001320     0.54681684     2.22055948     0.41732851    -0.48751116     0.35729708
O       7.19632451     4.50429723     7.43929506    -0.41732851     0.48751116    -0.35729708
O       2.69443352     0.54686383     7.05051776    -1.97576521     0.69104722    -1.70141426
O       4.95190424     4.50425022     2.60933688     1.97576521    -0.69104722     1.70141426
