# total energy = -19073.67749931 eV

CRYSTAL
PRIMVEC
        7.60600008     0.00000000     0.00000000
        0.00000000     7.60600008     0.00000000
       -1.89786986    -1.89786986     4.85670466
PRIMCOORD
22 1
Ti      3.77321001     6.38436699     1.04323802     0.02441726     2.26902715     2.01348717
Ti      3.77759001     2.86808201     1.23160798    -0.94835278    -1.38622878    -0.68941586
Ti      0.03126199     6.80999801     1.17761401     0.74142287    -0.91908282     0.45173888
Ti     -0.09456302     3.03577802     1.23482400     1.32005370    -1.10503818     0.97682262
Ti      5.75243722     2.90158422     3.70461583     0.58839563    -0.17267175    -0.66922832
Ti      5.90081524    -0.95347575     3.70207980    -0.55299282     0.83339486    -1.13012264
Ti      1.99578824     2.82338521     3.61237981    -1.21915278    -1.15018780    -1.85035910
Ti      1.90399721    -1.04801480     3.80485179    -0.92396560     1.42822545    -0.66468081
O       3.39342198     4.63119699     0.61177700     0.95640959     0.80175022     0.95455248
O       3.59930998     0.78161702     0.93120501     1.14002936     1.03289428    -0.90897709
O       0.10218100     4.88030798     0.80470699    -0.48845270    -0.87659352    -1.25267124
O      -0.12113000     0.99594498     0.96127000     0.36671478     0.18169324    -1.47120352
O       5.88168025     4.81990822     3.80479279     0.43204885    -0.84597887     2.63523079
O       5.75651623     0.96410824     3.66214084    -0.37645412     0.16773858     1.67181237
O       1.80972423     4.68655920     3.98954381     0.14192803     0.33200102     0.23830690
O       1.73429324     0.87219322     4.13272679     1.17798632    -0.69844403    -0.66984076
O       3.84737325     3.26567023     3.34328381    -0.02303092    -1.68658336    -0.99219165
O       0.07537722     2.80053523     3.18151481    -1.78761619     0.64404667    -0.68851803
O       5.53933998     6.11670898     1.88863800    -0.25436833     2.34651920    -1.20177726
O       5.68586498     2.87483399     1.40363900    -0.94024892     0.52361949     0.81290856
O       1.91817000     6.68958701     1.70152500    -0.82104250    -0.50812731     1.53245750
O       1.81431997     3.01632599     1.57071698     1.44627126    -1.21197374     0.90166899
