# total energy = -19948.83359737 eV

CRYSTAL
PRIMVEC
        6.39852398     0.00000000     0.00000000
        0.00002703     5.03345203     0.00000000
        0.00000000     0.00000000    10.18743587
PRIMCOORD
24 1
Ti      2.31917323     2.98281905     3.77946605     0.30281127     0.00415233     0.00197924
Ti      4.07937784     2.05063315     6.40796988    -0.30281127    -0.00415233    -0.00197924
Ti      5.51832471     2.05063490     1.31421121     0.30444907    -0.00393045    -0.00119993
Ti      0.88022636     2.98281753     8.87322482    -0.30444907     0.00393045     0.00119993
Ti      2.31915983     0.46609315     1.31425206     0.30300719    -0.00032962    -0.00226771
Ti      4.07939124     4.56735922     8.87318398    -0.30300719     0.00032962     0.00226771
Ti      0.88021295     0.46609123     6.40792903    -0.30392250     0.00013730    -0.00140228
Ti      5.51833811     4.56736114     3.77950689     0.30392250    -0.00013730     0.00140228
O       2.02518279     1.77236406     5.19857055     0.90417504     0.57463843    -0.25437527
O       4.37336833     3.26108814     4.98886538    -0.90417504    -0.57463843     0.25437527
O       1.17413570     1.77238437     0.10488538    -0.90378860     0.57425688    -0.25464369
O       5.22441548     3.26106789    10.08255026     0.90378860    -0.57425688     0.25464369
O       4.37335493     0.74436207     0.10485233    -0.90378860    -0.57398562    -0.25386131
O       2.02519619     4.28909013    10.08258331     0.90378860     0.57398562     0.25386131
O       5.22440207     0.74434182     5.19860360     0.90406500    -0.57458469    -0.25480336
O       1.17414899     4.28911044     4.98883232    -0.90406500     0.57458469     0.25480336
O       0.23248963     3.06163085     2.75188058    -0.77987116     0.08266717     0.30696206
O       6.16606149     1.97182135     7.43555534     0.77987116    -0.08266717    -0.30696206
O       3.43175851     1.97177441     2.34186978    -0.77882112    -0.08254710    -0.30621387
O       2.96679261     3.06167785     7.84556598     0.77882112     0.08254710     0.30621387
O       0.23247623     0.54490483     2.34183724    -0.77961328     0.08278441    -0.30632469
O       6.16607490     4.48854743     7.84559852     0.77961328    -0.08278441     0.30632469
O       2.96677921     0.54495178     7.43558782     0.77904995     0.08264351    -0.30740147
O       3.43177192     4.48850042     2.75184804    -0.77904995    -0.08264351     0.30740147
