# total energy = -4988.55392084 eV

CRYSTAL
PRIMVEC
        3.08400162     0.00000000     0.00000000
        0.00000000     3.95359220     0.00000000
        0.00000000    -0.00005806     4.43725282
PRIMCOORD
6 1
Ti      1.54200081     1.97676702     2.21862651     0.00000000     0.00000000     0.00000000
Ti      0.00000000     0.00000000     0.00000000     0.00000000     0.00000000     0.00000000
O       1.54200081     0.77048556     0.86475528     0.00000000    -0.11916939    -0.31439358
O       1.54200081     3.18304848     3.57249774     0.00000000     0.11916939     0.31439358
O       0.00000000     1.20625797     3.08338258    -0.00000000     0.11945041    -0.31447277
O       0.00000000     2.74727607     1.35387044    -0.00000000    -0.11945041     0.31447277
