# total energy = -19899.61447501 eV

CRYSTAL
PRIMVEC
        8.48047030     0.00000000     0.00000000
        0.00002670     3.42357367     0.00000000
        0.00000000     0.00000000    13.12565362
PRIMCOORD
24 1
Ti      3.07377854     2.02880654     4.86952390     0.03796904    -0.01321625     2.26590326
Ti      5.40671870     1.39476701     8.25612984    -0.03796904     0.01321625    -2.26590326
Ti      7.31386895     1.39476817     1.69325053     0.04088415     0.01256884    -2.26589169
Ti      1.16662829     2.02880555    11.43240333    -0.04088415    -0.01256884     2.26589169
Ti      3.07376531     0.31701977     1.69330315     0.03796904    -0.01321625    -2.26590326
Ti      5.40673193     3.10655390    11.43235071    -0.03796904     0.01321625     2.26590326
Ti      1.16661506     0.31701854     8.25607722    -0.04088415    -0.01256884    -2.26589169
Ti      7.31388218     3.10655513     4.86957652     0.04088415     0.01256884     2.26589169
O       2.68413191     1.20549846     6.69792056     2.32139257     0.51418020    -1.65306465
O       5.79636539     2.21807508     6.42773318    -2.32139257    -0.51418020     1.65306465
O       1.55617182     1.20551225     0.13513596    -2.32065029     0.51387989    -1.65363544
O       6.92432554     2.21806129    12.99051742     2.32065029    -0.51387989     1.65363544
O       5.79635216     0.50628825     0.13509339    -2.32139257    -0.51418020    -1.65306465
O       2.68414508     2.91728530    12.99055999     2.32139257     0.51418020     1.65306465
O       6.92431231     0.50627446     6.69796319     2.32065029    -0.51387989    -1.65363544
O       1.55618487     2.91729915     6.42769055    -2.32065029     0.51387989     1.65363544
O       0.30813136     2.08241157     3.54556648    -1.41957986     0.41254651     0.45611387
O       8.17236588     1.34116198     9.58008726     1.41957986    -0.41254651    -0.45611387
O       4.54837768     1.34113016     3.01730207    -1.42164805    -0.41270283    -0.45597503
O       3.93211962     2.08244345    10.10835144     1.42164805     0.41270283     0.45597503
O       0.30811813     0.37062473     3.01726015    -1.41957986     0.41254651    -0.45611387
O       8.17237911     3.05294881    10.10839335     1.41957986    -0.41254651     0.45611387
O       3.93210639     0.37065656     9.58012906     1.42164805     0.41270283    -0.45597503
O       4.54839091     3.05291699     3.54552463    -1.42164805    -0.41270283     0.45597503
