# total energy = -19960.65846248 eV

CRYSTAL
PRIMVEC
        7.60600008     0.00000000     0.00000000
        0.00000000     7.60600008     0.00000000
       -1.89786986    -1.89786986     4.85670466
PRIMCOORD
24 1
Ti      3.79695901     6.58975799     1.30711099     0.60227960     2.16752433     0.95820474
Ti      3.77581203     2.99029999     1.12153398     0.84253051    -2.87714649     1.41401162
Ti      0.02924398     6.52545602     1.23023598    -0.58490485     0.97501282     0.02035157
Ti      0.02969198     2.87064598     1.13337998    -0.45393589    -0.74663141    -1.08944958
Ti      5.70784325     2.87000425     3.57477182    -1.62098216    -1.52234303    -0.94608044
Ti      5.77204224    -1.13709475     3.70651484    -2.11465060     1.61900601    -0.09385816
Ti      1.82517620     2.99680723     3.62144584     1.79505773    -0.23674521    -1.22517251
Ti      1.78266422    -0.88442680     3.69293080     2.18708555     0.22198167     1.23906007
O       3.70411999     4.75954602     0.69309202    -0.20182190     2.26650258     0.45717034
O       3.83088398     1.02338001     0.88865498    -0.15698570    -0.66230459    -0.75990782
O       0.13581398     4.75533197     0.71926603     0.43909830    -1.22512931     0.06687210
O       0.00417399     0.82918101     0.79517798     0.33643849     0.45101100     0.37780704
O       5.58141322     4.66512921     4.05456683     0.31303707     0.57811893     0.39234277
O       5.55588725     0.91442421     4.03627079     1.03167841     0.31856443     0.26984612
O       2.05884320     4.91113123     4.12090380    -0.72785849    -1.86775210     0.39551063
O       1.95232623     1.09064722     3.99647079    -0.72476674    -0.97607391     0.01574004
O       3.78829320     2.97714322     3.22839081    -0.08228047     0.05323240    -0.42820479
O       3.78593122    -0.91511177     3.28537182     0.83837663    -0.19309069    -1.02691544
O      -0.01475177     3.05459424     3.06155784     0.75442417    -0.15588090     1.26888847
O      -0.02490075    -1.16213579     3.20306581     1.10183433     0.60860965     1.21048482
O       5.83001599     6.36529899     1.75625298    -1.99944611     0.36517212    -1.16192951
O       5.70964901     2.94829898     1.60297103     0.09197354    -0.12205263    -0.24018380
O       1.93199301     6.52567002     1.77875598    -0.24517329     0.34652416    -1.33504221
O       1.96348499     2.74542899     1.56427002    -1.42100836     0.61388993     0.22045392
