# total energy = -19941.51984799 eV

CRYSTAL
PRIMVEC
        5.83553076     0.00000000     0.00000000
        1.82225976     5.93742577     0.00000000
        0.00000000     0.00000000    10.56650325
PRIMCOORD
24 1
Ti      3.19496864     3.51851304     3.92009734     0.28979789    -2.32000443     0.91428539
Ti      4.46282178     2.41891286     6.64640596    -0.28979789     2.32000443    -0.91428539
Ti      5.77515922     2.41891491     1.36311209    -0.91762269    -0.68475445     0.23896227
Ti      1.88263129     3.51851123     9.20339133     0.91762269     0.68475445    -0.23896227
Ti      2.28383890     0.54980026     1.36315446     0.28979789    -2.32000443    -0.91428539
Ti      5.37395155     5.38762583     9.20334896    -0.28979789     2.32000443     0.91428539
Ti      0.97150143     0.54979804     6.64636360     0.91762269     0.68475445     0.23896227
Ti      6.68628902     5.38762804     3.92013971    -0.91762269    -0.68475445    -0.23896227
O       2.48863094     2.09066859     5.39200573     1.62166813     1.98323839    -0.77383498
O       5.16915949     3.84675738     5.17449758    -1.62166813    -1.98323839     0.77383498
O       1.71247315     2.09069255     0.10878809    -0.35947815    -0.30607735     1.08227388
O       5.94531734     3.84673347    10.45771492     0.35947815     0.30607735    -1.08227388
O       4.25802972     0.87804441     0.10875381    -1.62166813    -1.98323839    -0.77383498
O       3.39976071     5.05938155    10.45774920     1.62166813     1.98323839     0.77383498
O       5.03418757     0.87802051     5.39204001     0.35947815     0.30607735     1.08227388
O       2.62360281     5.05940553     5.17446329    -0.35947815    -0.30607735    -1.08227388
O       1.32042002     3.61147898     2.85427614     0.43341411     1.64649162     1.60502640
O       6.33737041     2.32594699     7.71222717    -0.43341411    -1.64649162    -1.60502640
O       3.84363636     2.32589163     2.42900912     0.95537755     1.39779901     0.56723236
O       3.81415407     3.61153434     8.13749401    -0.95537755    -1.39779901    -0.56723236
O       0.40929019     0.64276602     2.42897537     0.43341411     1.64649162    -1.60502640
O       7.24850018     5.29465995     8.13752776    -0.43341411    -1.64649162     1.60502640
O       2.90302430     0.64282138     7.71226086    -0.95537755    -1.39779901     0.56723236
O       4.75476613     5.29460459     2.85424239     0.95537755     1.39779901    -0.56723236
