# total energy = -19926.89721966 eV

CRYSTAL
PRIMVEC
        6.17393518     0.00000000     0.00000000
        2.23151776     6.18041336     0.00000000
        0.00000000     0.00000000    11.22843523
PRIMCOORD
24 1
Ti      3.56015000     3.66250714     4.16566940     0.03303277    -2.34894915     0.75269870
Ti      4.84530315     2.51790606     7.06276595    -0.03303277     2.34894915    -0.75269870
Ti      6.23374367     2.51790816     1.44850344    -0.55799207    -0.89656972     0.18017321
Ti      2.17170952     3.66250522     9.77993204     0.55799207     0.89656972    -0.18017321
Ti      2.44439128     0.57230062     1.44854846     0.03303277    -2.34894915    -0.75269870
Ti      5.96106190     5.60811270     9.77988702    -0.03303277     2.34894915     0.75269870
Ti      1.05595067     0.57229834     7.06272093     0.55799207     0.89656972     0.18017321
Ti      7.34950252     5.60811503     4.16571442    -0.55799207    -0.89656972    -0.18017321
O       2.73984486     2.17622854     5.72978455     1.81578906     2.13106119    -0.80673277
O       5.66560830     4.00418466     5.49865080    -1.81578906    -2.13106119     0.80673277
O       1.91867861     2.17625347     0.11560306    -0.34479457    -0.50117478     1.35507548
O       6.48677462     4.00415978    11.11283198     0.34479457     0.50117478    -1.35507548
O       4.54984956     0.91397802     0.11556663    -1.81578906    -2.13106119    -0.80673277
O       3.85560360     5.26643518    11.11286842     1.81578906     2.13106119     0.80673277
O       5.37101587     0.91395308     5.72982099     0.34479457     0.50117478     1.35507548
O       3.03443723     5.26646013     5.49861436    -0.34479457    -0.50117478    -1.35507548
O       1.58164890     3.75927766     3.03308049     0.56579897     2.25630044     2.17838982
O       6.82380426     2.42113554     8.19535487    -0.56579897    -2.25630044    -2.17838982
O       4.18545466     2.42107797     2.58117288     0.82740444     1.83862226     1.09842556
O       4.21999850     3.75933523     8.64726229    -0.82740444    -1.83862226    -1.09842556
O       0.46589015     0.66907102     2.58113701     0.56579897     2.25630044    -2.17838982
O       7.93956300     5.51134218     8.64729816    -0.56579897    -2.25630044     2.17838982
O       3.10423975     0.66912859     8.19539062    -0.82740444    -1.83862226     1.09842556
O       5.30121340     5.51128461     3.03304467     0.82740444     1.83862226    -1.09842556
