# total energy = -19961.53965850 eV

CRYSTAL
PRIMVEC
        7.60600008     0.00000000     0.00000000
        0.00000000     7.60600008     0.00000000
       -1.89786986    -1.89786986     4.85670466
PRIMCOORD
24 1
Ti      3.80654003     6.59205102     1.15775399    -0.43065557     0.05625524     1.30090901
Ti      3.74948001     2.81034702     1.20838699     0.18040383    -0.32215832    -0.26293730
Ti      0.04741301     6.76381798     1.15583398     0.06585035    -0.88599554     1.02614514
Ti     -0.02293301     2.87002599     1.18804399    -0.00173627     0.64799254     0.61552567
Ti      5.70267324     2.94750125     3.66086182     0.58128602    -0.36234442     0.41173044
Ti      5.68477122    -0.89632175     3.57737982     1.26715349     0.16636098     0.59301899
Ti      1.90727922     2.85511420     3.67533180    -0.57229281    -1.81895203    -0.93603976
Ti      1.89661524    -1.04567578     3.66231181    -1.03846844     1.37618296    -0.76849376
O       3.80101600     4.65938399     0.77830601     0.05745184     1.06202798     0.20964320
O       3.75726500     0.91333803     0.76486999     0.39068364    -1.12975318     0.52710951
O      -0.00425099     4.88109502     0.85403800    -0.32410876    -1.36783047    -0.58071575
O       0.09038898     0.99285500     0.73982499    -0.70907246     0.12494923     0.29907494
O       5.93053220     4.81763720     4.06713283    -0.72528533    -0.05732894    -0.35684354
O       5.79594925     1.01722621     4.15628084    -0.82628987    -0.07194566    -1.20323276
O       1.67187922     4.66568120     4.08644780     0.46459260     0.73717026     0.10599685
O       1.94441921     0.89252924     4.07383984     0.04974958    -0.07988420     0.04282457
O       3.74354724     2.87962924     3.33703682     0.33886638     0.28223138    -0.61566271
O       3.80633222    -1.16353679     3.19068180    -0.28787779     0.35586266     0.03100752
O      -0.06249975     2.81118323     3.15988982     1.24373845    -0.01931671     0.65206183
O      -0.01490978    -0.85767678     3.26809879     0.57998864     0.02666543    -0.37695009
O       5.73963002     6.66783798     1.65231802    -1.18635320     0.29242041    -0.83677123
O       5.68587001     2.86457499     1.72092601    -0.83156141    -0.16779540    -0.83228466
O       1.85010199     6.49545902     1.66568398     1.54209143     0.56209015     0.09904562
O       1.90111600     2.72512102     1.57489701     0.17184566     0.59309510     0.85583803
