# total energy = -19901.14162169 eV

CRYSTAL
PRIMVEC
        6.05563034     0.00000000     0.00000000
        0.00002131     3.47039648     0.00000000
        0.00000000     0.00000000     9.16166256
PRIMCOORD
24 1
Ti      2.19488744     2.05655385     3.39891159    -1.44901257     3.16244598    -5.12234131
Ti      3.86076434     1.41384292     5.76275135     1.44901257    -3.16244598     5.12234131
Ti      5.22259883     1.41384414     1.18188330    -1.44556806    -3.16244083     5.12655021
Ti      0.83305296     2.05655272     7.97977973     1.44556806     3.16244083    -5.12655021
Ti      2.19487688     0.32135566     1.18192002    -1.44901257     3.16244598     5.12234131
Ti      3.86077490     3.14904120     7.97974301     1.44901257    -3.16244598    -5.12234131
Ti      0.83304240     0.32135429     5.76271463     1.44556806     3.16244083     5.12655021
Ti      5.22260939     3.14904252     3.39894831    -1.44556806    -3.16244083    -5.12655021
O       1.91665280     1.22198565     4.67512643     5.21553792    -3.87190591     6.75692898
O       4.13899899     2.24841106     4.48653651    -5.21553792     3.87190591    -6.75692898
O       1.11121288     1.22199963     0.09432444    -5.21571044    -3.87210697     6.75684824
O       4.94443895     2.24839713     9.06733822     5.21571044     3.87210697    -6.75684824
O       4.13898843     0.51321283     0.09429472    -5.21553792     3.87190591     6.75692898
O       1.91666336     2.95718394     9.06736793     5.21553792    -3.87190591    -6.75692898
O       4.94442839     0.51319884     4.67515614     5.21571044     3.87210697     6.75684824
O       1.11122330     2.95719792     4.48650675    -5.21571044    -3.87210697    -6.75684824
O       0.22002801     2.11089189     2.47479370     5.22301238    -1.31856812     2.25415100
O       5.83562378     1.35950487     6.68686923    -5.22301238     1.31856812    -2.25415100
O       3.24785065     1.35947242     2.10606686     5.22584110     1.31912476    -2.25444899
O       2.80780114     2.11092434     7.05559588    -5.22584110    -1.31912476     2.25444899
O       0.22001745     0.37569360     2.10603762     5.22301238    -1.31856812    -2.25415100
O       5.83563434     3.09470316     7.05562513    -5.22301238     1.31856812     2.25415100
O       2.80779058     0.37572605     6.68689843    -5.22584110    -1.31912476    -2.25444899
O       3.24786121     3.09467071     2.47476446     5.22584110     1.31912476     2.25444899
