# total energy = -19918.91155016 eV

CRYSTAL
PRIMVEC
        6.97432624     0.00000000     0.00000000
        0.00003243     6.07319383     0.00000000
        0.00000000     0.00000000    11.46236063
PRIMCOORD
24 1
Ti      2.52787702     3.59896892     4.25245418     0.37160014    -0.86103834     0.92187067
Ti      4.44648171     2.47422466     7.20990690    -0.37160014     0.86103834    -0.92187067
Ti      6.01491930     2.47422662     1.47868056     0.37129597     0.86128491    -0.92241265
Ti      0.95943943     3.59896715     9.98368065    -0.37129597    -0.86128491     0.92241265
Ti      2.52786107     0.56237213     1.47872652     0.37160014    -0.86103834    -0.92187067
Ti      4.44649767     5.51082164     9.98363469    -0.37160014     0.86103834     0.92187067
Ti      0.95942348     0.56236991     7.20986094    -0.37129597    -0.86128491    -0.92241265
Ti      6.01493526     5.51082380     4.25250014     0.37129597     0.86128491     0.92241265
O       2.20742973     2.13847470     5.84915507     0.96246969     1.40629985    -0.84319899
O       4.76692901     3.93471887     5.61320601    -0.96246969    -1.40629985     0.84319899
O       1.27979699     2.13849924     0.11801144    -0.96207965     1.40642120    -0.84383020
O       5.69456181     3.93469440    11.34434931     0.96207965    -1.40642120     0.84383020
O       4.76691305     0.89812189     0.11797423    -0.96246969    -1.40629985    -0.84319899
O       2.20744568     5.17507168    11.34438652     0.96246969     1.40629985     0.84319899
O       5.69454579     0.89809742     5.84919227     0.96207965    -1.40642120    -0.84383020
O       1.27981281     5.17509622     5.61316881    -0.96207965     1.40642120     0.84383020
O       0.25341301     3.69406079     3.09626968    -0.81346135     0.07284889     0.02015746
O       6.72094573     2.37913279     8.36609140     0.81346135    -0.07284889    -0.02015746
O       3.74058310     2.37907634     2.63494732    -0.81356599    -0.07259898    -0.02033846
O       3.23377563     3.69411723     8.82741356     0.81356599     0.07259898     0.02033846
O       0.25339699     0.65746381     2.63491070    -0.81346135     0.07284889    -0.02015746
O       6.72096175     5.41572977     8.82745019     0.81346135    -0.07284889     0.02015746
O       3.23375961     0.65752025     8.36612796     0.81356599     0.07259898    -0.02033846
O       3.74059912     5.41567333     3.09623305    -0.81356599    -0.07259898     0.02033846
