# total energy = -19074.80920713 eV

CRYSTAL
PRIMVEC
        7.60600008     0.00000000     0.00000000
        0.00000000     7.60600008     0.00000000
       -1.89786986    -1.89786986     4.85670466
PRIMCOORD
22 1
Ti      3.81162399     6.55807397     1.14719003     0.99152882    -0.09129039     0.40920022
Ti      3.80867102     2.88230000     1.11941102    -1.26212724    -0.33178042     0.12917793
Ti      0.28872599     6.74510199     1.04194403    -0.37318856    -1.56379566     0.40845768
Ti     -0.11418502     2.78123698     1.28321498     1.15080769     1.52874200     0.17690688
Ti      5.59050121     2.83957825     3.58632979    -0.10048003     0.76523772     1.75534986
Ti      6.02907125    -0.71254177     3.59384480     0.63716177    -2.97011119    -0.80171603
Ti      1.79825225     2.78159222     3.56873581     0.70492656    -1.36352490    -0.60855463
Ti      1.54033422    -1.20726879     3.81832480    -0.65534924     1.89027652     0.54335400
O       3.78664698     4.68680902     0.65543201     0.08219280     1.30036367     1.50733473
O       4.05540198     1.03872298     0.70835598    -0.33567718    -1.82298095     0.64650876
O      -0.09624099     4.82837198     0.71820698     0.60713615     0.88285005    -0.15362141
O      -0.13933502     0.94387002     1.07474402     0.30540500     0.51574960    -0.51952681
O      -1.56430177     4.97821524     4.04035980    -0.54114414    -0.25190135    -0.71485590
O       5.59920120     0.97739525     4.16210179    -0.00784547     0.18728359    -0.86091082
O       2.11832622     4.58897024     4.14420882    -0.78793851     2.46247599    -1.12264279
O       1.49477825     0.96571424     4.05647182     0.85754421    -1.43417139    -0.56022970
O       3.73853424     2.81299625     3.19882382     1.51376429    -0.30188619     0.06207314
O      -0.04609377     2.78624025     3.26776980    -0.91324333     0.70868757    -0.90165562
O       5.59710798     6.52431702     1.75198199     0.28583941     0.88613900     1.30927538
O       5.68393502     3.03923000     1.59235700    -0.06835280    -0.21541867     0.54015581
O       2.08900599     6.65377801     2.07860300    -0.01129357    -0.06093954    -1.62807763
O       1.97376701     3.03051598     1.59184603    -2.07966662    -0.72000480     0.38399748
