# total energy = -19934.78042587 eV

CRYSTAL
PRIMVEC
        6.60425995     0.00000000     0.00000000
        0.00003071     5.75094273     0.00000000
        0.00000000     0.00000000    10.85415374
PRIMCOORD
24 1
Ti      2.39374477     3.40800322     4.02681376     0.32473405    -0.69761228     0.69993579
Ti      4.21054595     2.34293927     6.82734041    -0.32473405     0.69761228    -0.69993579
Ti      5.69576032     2.34294113     1.40021996     0.32515160     0.69784111    -0.70058139
Ti      0.90853040     3.40800155     9.45393433    -0.32515160    -0.69784111     0.70058139
Ti      2.39372966     0.53253198     1.40026348     0.32473405    -0.69761228    -0.69993579
Ti      4.21056106     5.21841069     9.45389081    -0.32473405     0.69761228     0.69993579
Ti      0.90851529     0.53252987     6.82729689    -0.32515160    -0.69784111    -0.70058139
Ti      5.69577543     5.21841274     4.02685728     0.32515160     0.69784111     0.70058139
O       2.09030080     2.02500461     5.53879174     0.96455434     1.23794806    -0.67286155
O       4.51398992     3.72593787     5.31536243    -0.96455434    -1.23794806     0.67286155
O       1.21188939     2.02502785     0.11174961    -0.96391156     1.23773981    -0.67356166
O       5.39240139     3.72591469    10.74240425     0.96391156    -1.23773981     0.67356166
O       4.51397481     0.85046644     0.11171438    -0.96455434    -1.23794806    -0.67286155
O       2.09031591     4.90047604    10.74243948     0.96455434     1.23794806     0.67286155
O       5.39238622     0.85044327     5.53882697     0.96391156    -1.23773981    -0.67356166
O       1.21190438     4.90049928     5.31532720    -0.96391156     1.23773981     0.67356166
O       0.23996660     3.49804940     2.93197782    -0.71859120     0.04123820     0.07280698
O       6.36432412     2.25289309     7.92217635     0.71859120    -0.04123820    -0.07280698
O       3.54210318     2.25283964     2.49513379    -0.71908331    -0.04099600    -0.07314174
O       3.06218754     3.49810285     8.35902019     0.71908331     0.04099600     0.07314174
O       0.23995143     0.62257797     2.49509911    -0.71859120     0.04123820    -0.07280698
O       6.36433929     5.12836452     8.35905487     0.71859120    -0.04123820     0.07280698
O       3.06217237     0.62263142     7.92221097     0.71908331     0.04099600    -0.07314174
O       3.54211836     5.12831107     2.93194314    -0.71908331    -0.04099600     0.07314174
