# total energy = -19960.67642744 eV

CRYSTAL
PRIMVEC
        7.60600008     0.00000000     0.00000000
        0.00000000     7.60600008     0.00000000
       -1.89786986    -1.89786986     4.85670466
PRIMCOORD
24 1
Ti      3.79262198     6.55970701     1.30329297     0.25851629     2.05255947     0.93418728
Ti      3.77474298     2.98087598     1.14079201     0.65990421    -3.13912632     0.97505293
Ti      0.01463202     6.53713200     1.21057900    -0.17761907     0.98385304     0.89750123
Ti      0.01537397     2.87657700     1.10973899    -0.06456557    -0.50197414    -0.39810796
Ti      5.71673924     2.84791422     3.56308282    -1.71722193    -0.53626727    -0.57489888
Ti      5.78643422    -1.12315876     3.71376181    -1.72204198     1.26401469    -0.29032059
Ti      1.80557521     2.99929421     3.61472984     2.01197227    -0.64882069    -1.09834302
Ti      1.80312523    -0.89525376     3.70014481     1.77686100     0.72333438     1.24716753
O       3.68517402     4.71636500     0.67939099    -0.13450757     3.30433133     0.66191893
O       3.77204201     1.02104099     0.85006901     0.21062279    -0.37765663    -0.29284567
O       0.11450798     4.76333901     0.73816501     0.40134755    -1.62815399    -0.21050118
O       0.00845498     0.79427701     0.79980802     0.18407846     1.72361575     0.50830137
O       5.64707422     4.70172923     4.10827483     0.14567696    -0.82430524    -0.51970499
O       5.58163722     0.94357320     4.04712083     0.83160434     0.09524141    -0.01124087
O       2.02884520     4.90093224     4.16424083    -0.45174762    -2.13050197     0.12380278
O       1.94591323     1.10616122     3.96777880    -0.53908417    -1.21049587     0.12289389
O       3.78003221     2.97903820     3.21465183     0.66593911     0.12949392    -0.25949794
O       3.80391520    -0.95474879     3.29107783     0.80748559    -0.09622511    -0.89528159
O       0.01207424     3.02968020     3.06897283    -0.12005411    -0.15102563     0.92233141
O      -0.00165177    -1.15475075     3.23949279     0.54981853     0.59180723     0.82165751
O       5.82913300     6.38835799     1.77181201    -1.95580830     0.30565466    -1.21294459
O       5.71119400     2.97401298     1.60195802     0.43909907    -0.29443462    -0.08607979
O       1.92671198     6.58594600     1.79177501     0.04609141    -0.02010295    -1.63855231
O       1.97860803     2.80777099     1.54560599    -2.10636676     0.38518533     0.27350429
