# total energy = -39034.20491892 eV

CRYSTAL
PRIMVEC
        5.93200024     0.00000000     0.00000000
        0.00000000     9.29399984     0.00000000
        0.00000000     0.00000000     9.29399984
PRIMCOORD
46 1
Ti      4.40700502     7.13920500     6.84930001    -0.26901539    -0.62100958    -0.32078098
Ti      4.52020598     6.70895098     2.30427302    -0.25896521     2.21944212     1.43624061
Ti      4.43773498     2.18857302     7.07900199    -0.86396709     0.88380676    -0.27595583
Ti      4.45194799     2.58844898     2.03653399    -0.04719724    -1.07931917     1.40789368
Ti      1.44248400     6.80816600     7.10344003     0.12128952     0.97792845     0.05309973
Ti      1.53378798     6.99968498     2.19016002     0.04236383     0.95844745     0.28365449
Ti      1.45100402     2.42994801     6.79257199     0.33216994     0.05710062     0.83164599
Ti      1.47420902     2.11285601     2.60237798     0.47623687     0.60378138    -1.41882267
Ti      3.03691601     4.55490599     4.65886100     0.70410072     0.71048863    -0.58129862
Ti      2.94565701     4.95517502     9.14562801    -0.06424624    -2.41511626    -1.12673753
Ti      2.92128702     9.21674202     4.67962798     0.57976649     0.21773112    -0.10203838
Ti      3.01277500     0.08754502     0.06444299    -1.72798328    -0.42259799     0.12185337
Ti      0.07551899     4.66679300     4.70415498    -0.76352870    -0.13401443    -0.25362322
Ti      0.00079101     4.71297599     9.19552202     0.45791236    -2.24540719    -0.97788474
Ti      5.89274598     9.06107401     4.90364602    -0.57493462     0.55703176    -0.70665331
Ti      5.91237602     0.00680501     9.18914400     1.53244542    -0.55291697     0.79018077
O       4.33534997     5.60966197     5.56793503     0.62548535     0.21727064    -0.25420378
O       4.43226799     5.57281102     0.85501100     0.22168960    -0.82575662     0.16156021
O       4.46361799     0.79571399     5.75791199    -0.10277757     0.24420013    -0.78521571
O       4.48154302     0.78294499     1.05670902     0.14890421     1.74686984    -0.49360700
O       1.43596099     5.50800099     5.67689998     0.73160048     0.47323999    -0.26918277
O       1.45451199     5.72031601     0.68885998    -0.39969613    -0.14433921     0.95558093
O       1.38827498     0.75913001     5.70845497     0.42355752     1.69236886    -0.89212865
O       1.35561903     0.70498702     1.06525899     0.86836136     1.62312646     0.63538385
O       4.33947697     8.43779798     8.25558299     0.74586291     0.70628744     1.24140286
O       4.35605800     8.23499101     3.98227201     0.61005873     0.27437820    -0.81120160
O       4.32729701     3.92144399     8.21200498     0.68109191    -1.02726074     1.50922963
O       4.58880201     4.00962000     3.66105698    -1.52595492    -1.78190319    -1.20047397
O       1.57897099     8.38711402     8.45419501    -1.10534131    -0.35793112    -0.39511211
O       1.37358899     8.36398601     3.82707401     0.78878955     0.64253409    -0.67427977
O       1.48098001     3.76097802     8.31212299    -0.03645003     1.05807028     0.55877317
O       1.44652199     3.76074402     3.72881299     0.18381980    -0.86811042     0.08930833
O       3.03956200     6.05535702     7.73016301     0.30555258     0.64967816     0.42639011
O       2.86438100     5.95614602     3.11799200     0.34404407     0.49261275    -0.01981499
O       2.82718301     1.58190300     7.95397201     0.95673201    -0.70381018     0.20004476
O       3.26451499     1.68362298     3.28203298    -1.38223689    -0.64428295    -0.24167119
O       5.85912798     5.96691700     7.86099203    -0.24404406     1.31469321    -0.43967192
O       0.06286102     6.02073099     3.20363600     0.11490496     0.48568414    -0.22970450
O       0.03936200     1.58608498     7.91584199    -0.26871843    -1.26444895     1.06331225
O       2.93956401     8.00709702     6.09102399    -0.83888108    -1.28187924     0.49424771
O       3.01548798     7.85013400     1.33986097    -0.07657262    -0.31425243     0.89759893
O       3.01439698     3.18190603     5.93338700    -0.46784685    -0.44272150     0.18332564
O       0.13895200     7.95254498     6.31301199    -0.53450323    -0.80262723    -0.39306423
O       5.89669401     7.92829501     1.51216500    -0.57264505    -1.16680947    -0.43736024
O       5.81301802     3.18361098     5.98111101     0.53753174     0.10721607     0.07447743
O       0.21155300     3.13232498     1.47077599    -0.40876570     0.18252577    -0.11471701
