# total energy = -39034.72068644 eV

CRYSTAL
PRIMVEC
        7.60600008     0.00000000     0.00000000
        0.00000000     7.60600008     0.00000000
       -3.79573973    -3.79573973     9.71340985
PRIMCOORD
46 1
Ti      2.07510847     4.86059544     6.01785264     0.20296270     0.16348803     0.62561854
Ti      3.68616300     6.86388598     1.14799702     0.87777777     0.45345072    -0.07270260
Ti      1.81725844     0.76824646     6.08831560     1.20547579    -0.37608928     0.09216714
Ti      3.64228399     2.93884698     1.34123398     1.06405272    -0.71351482    -0.75538576
Ti     -1.71898557     4.74340443     6.06895364    -0.96183308    -1.62809846     1.32335269
Ti     -0.09783000     6.65271399     1.09785599    -0.50674277    -0.04659355     1.34003375
Ti     -1.84218253     0.82452843     6.01799361    -0.70290618     0.69257446     1.22116570
Ti     -0.00158198     2.89540698     1.20183901    -0.58707589    -0.13645364     0.19257056
Ti      3.89812844     0.90541746     8.44927261     0.01737115     0.27728149    -0.43746539
Ti      5.50262799     2.72754200     3.65117602    -0.18660482    -0.37127335    -0.95052074
Ti      3.77043246    -2.83711757     8.55604063     0.41248275     0.53028328    -0.55252153
Ti      5.76636898    -1.04990100     3.78589402     0.74567599     0.39917600    -3.64839237
Ti      0.06287345     0.97633144     8.42715861    -0.79279301    -0.18096639     0.44492263
Ti      1.70448902     2.77109202     3.51891499     0.63755283     0.99622828     0.62306183
Ti      0.07083244    -2.74178857     8.52877461    -0.80314916     0.29812004     1.72386874
Ti      2.01898197    -0.92775101     3.51696201    -2.04790782    -0.49774107     1.48363892
O       2.19759443    -0.98429456     5.56144260    -0.39525326     0.02714006    -0.75051506
O       3.71937501     1.06202397     1.01707100     1.07388643    -1.04372840    -2.08562824
O      -1.88217055     2.61368047     5.60153963     0.59502368     1.63909199     1.25568765
O       0.35309500     4.82210001     0.71042702    -0.97507272    -0.53018712     0.73921943
O      -1.97238654    -1.07891653     5.67191661     0.01374898     0.10948610    -0.62644438
O      -0.21693002     1.03149801     0.82091299    -0.21711534    -1.24376262    -0.22431855
O       3.78632244     2.86444042     8.82186260    -0.24944364     0.62124277     0.45735366
O       5.61932502     4.54138302     4.07387402     0.08438338     2.45896927     0.95665025
O       3.86831147    -0.92937755     9.01852964    -0.25778815     0.69031831    -1.12244738
O       5.92558201     0.90444298     3.95347900    -0.49255747    -1.70403550     0.62818038
O      -0.09249357     2.84963145     8.80584060     0.47338192     0.96530664     1.26073833
O       2.08242599     4.60804099     4.07559898    -0.56599463     0.58650870     0.00381372
O       0.00439746    -0.74025653     9.13580362     0.05474498    -0.28475312    -0.07098793
O       1.73075601     1.10086500     4.20279499    -0.55396444    -1.53960671     0.23052931
O       1.85169047     1.07009446     7.98684964     1.29356696     0.45339004     0.87759497
O       3.57776098     2.62001901     3.28101002     2.01882298     0.60922158     0.60816768
O       1.93699945    -2.43943357     8.15528363     0.82159941    -1.18751431    -0.03917488
O       3.71758798    -0.62835898     3.24038302     1.72869728    -0.75914703    -0.26286249
O      -1.90519452     0.89415143     8.01212764     0.72584815     0.40685331    -0.18754688
O      -0.06156797     2.99766699     3.12488501    -1.11460706     0.13418644     0.24416516
O      -1.82089357    -2.62191854     8.14699460    -0.16888837    -0.61497957    -0.54849853
O       0.05775599    -0.99886598     3.12694203    -1.45684493    -0.46462680     0.82652256
O       3.87902942     4.66941746     6.56001563    -0.23892345    -0.52747178    -0.27132425
O       5.58235997     6.47826600     1.66474898     0.38221108    -0.19757984    -0.26749382
O       3.82144145     0.82031946     6.52818763    -0.05105981     0.22703569    -0.92679022
O       5.45899198     2.92434398     1.74561102     1.54907763     0.59248060    -0.77304102
O       0.15063845     4.98698244     6.65915461    -0.78815011    -1.08564100    -2.30537742
O       1.80686799     6.91086999     1.49968901     0.94350111    -0.74654039     0.56645383
O       0.07151444     0.31558544     6.58768964    -1.20689427     1.18793932    -1.15908793
O       1.83066700     2.46364300     1.57555499    -1.60027551     1.36053085     0.31305070
