# total energy = -19889.13423478 eV

CRYSTAL
PRIMVEC
        7.09207472     0.00000000     0.00000000
        0.00002233     2.86307709     0.00000000
        0.00000000     0.00000000    10.97676343
PRIMCOORD
24 1
Ti      2.57054931     1.69665680     4.07230096    -1.03535432     0.62936952    -0.97918855
Ti      4.52154794     1.16642020     6.90446257     1.03535432    -0.62936952     0.97918855
Ti      6.11646563     1.16642117     1.41603695    -1.03284158    -0.62969785     0.98252764
Ti      0.97563162     1.69665597     9.56072668     1.03284158     0.62969785    -0.98252764
Ti      2.57053824     0.26511830     1.41608096    -1.03511366     0.62881493     0.97995679
Ti      4.52155901     2.59795879     9.56068267     1.03511366    -0.62881493    -0.97995679
Ti      0.97562056     0.26511727     6.90441856     1.03303107     0.62909596     0.98180465
Ti      6.11647669     2.59795982     4.07234496    -1.03303107    -0.62909596    -0.98180465
O       2.24469438     1.00813810     5.60135834     8.04103967    -1.40079511     3.95821838
O       4.84740291     1.85493890     5.37540518    -8.04103967     1.40079511    -3.95821838
O       1.30140032     1.00814963     0.11301193    -8.03795538    -1.40105454     3.96028221
O       5.79069702     1.85492736    10.86375129     8.03795538     1.40105454    -3.96028221
O       4.84739185     0.42340035     0.11297633    -8.04117260     1.40061231     3.95775173
O       2.24470540     2.43967664    10.86378690     8.04117260    -1.40061231    -3.95775173
O       5.79068596     0.42338882     5.60139400     8.03885861     1.40125894     3.96057069
O       1.30141124     2.43968823     5.37536953    -8.03885861    -1.40125894    -3.96057069
O       0.25768508     1.74148578     2.96509763     2.46275830    -0.97902194     2.16468660
O       6.83441217     1.12159121     8.01166589    -2.46275830     0.97902194    -2.16468660
O       3.80373178     1.12156460     2.52331898     2.46057672     0.97969377    -2.16701474
O       3.28836552     1.74151244     8.45344434    -2.46057672    -0.97969377     2.16701474
O       0.25767401     0.30994723     2.52328393     2.46274776    -0.97867201    -2.16664296
O       6.83442323     2.55312976     8.45347940    -2.46274776     0.97867201     2.16664296
O       3.28835446     0.30997384     8.01170085    -2.46072276    -0.97901166    -2.16449326
O       3.80374284     2.55310315     2.96506263     2.46072276     0.97901166     2.16449326
