# total energy = -19960.37523620 eV

CRYSTAL
PRIMVEC
        5.93400000     0.00000000     0.00000000
        0.00000000     9.29699974     0.00000000
        0.00000000     0.00000000     4.64899994
PRIMCOORD
24 1
Ti      4.47049999     7.04810301     2.44745198    -1.66086281    -0.52020044    -0.88841546
Ti      4.45515099     2.33020302     2.35745898     0.32068147    -1.69470805     0.98873686
Ti      1.46265502     6.99683002     2.27381400     1.56098339     0.81640783     0.48826887
Ti      1.47918901     2.41567298     2.25466302     0.48761118    -2.24452658     0.75544233
Ti      2.92321201     4.59683201     0.07561800     1.76299941     0.23194496    -0.67109957
Ti      2.95808299     9.22870101     4.60740402    -0.91216295     1.16556351     0.31166770
Ti      0.02952201     4.72219098     0.00339600    -1.53153370    -0.64445470    -0.37767668
Ti      5.92829801     9.27436302     0.00904200     0.88905592     1.42413046     0.20913027
O       4.29778802     5.56920299     0.92064501     1.17907775    -0.16701455    -0.14088314
O       4.40577002     0.88568597     0.80134200     1.01393368     0.21169546    -0.01379603
O       1.48985299     5.44136900     0.97863199    -0.48315571     0.28533111    -0.16956509
O       1.52807800     0.87741202     0.84380699    -0.34456729    -0.10108399    -0.91547813
O       4.49918801     8.41178400     3.68797400     0.02668112    -0.52987756     0.12421801
O       4.46117599     3.74473699     3.80109400     0.08425482    -0.22880204    -0.54417367
O       1.53747301     8.24991497     3.77207402    -0.84382300     0.90599230     0.17719201
O       1.40834598     3.64520298     3.70928302     0.19332003     1.40398791     1.10289182
O       2.83095700     6.17698100     3.22764398     1.71453769    -1.49543643     0.62332434
O       2.94739398     1.30618498     3.11658597     0.83568931     0.61169292     0.22514233
O       0.04267402     6.14004702     3.30293400    -0.74988925    -0.79949999     0.05728009
O       0.06134000     1.30715502     2.99176401    -0.45660007    -0.13865707     1.45501919
O       2.98491800     7.95794100     1.50670501     0.19157862    -0.43278907    -0.63962565
O       3.08294999     3.20700099     1.44381298    -0.86244859     0.76348268    -0.88450224
O       0.02217898     7.92299303     1.39429802    -0.82856478    -0.60613265     0.13799579
O       0.07875502     3.15185400     1.42208099    -1.58679624     1.78295375    -1.41109367
