# total energy = -4990.08092575 eV

CRYSTAL
PRIMVEC
        3.95527414     0.00000000     0.00000000
       -0.00000881     3.95527414     0.00000000
       -1.97766809    -1.97767249     5.04780947
PRIMCOORD
6 1
Ti     -0.00017418     2.96660541     1.26195223    -0.00023731     0.00023731     0.00000000
Ti      1.97777131    -0.98900388     3.78585691     0.00023731    -0.00023731     0.00000000
O       0.00003951     0.98881182     0.82224686    -0.00019438    -0.00097625    -0.52935383
O       1.97755752     0.98878961     4.22556233     0.00019438     0.00097625     0.52935383
O      -0.00002234    -0.98879465     3.34615154    -0.00097625    -0.00019438    -0.52935383
O       1.97761931     2.96639602     1.70165765     0.00097625     0.00019438     0.52935383
