# total energy = -19070.88996403 eV

CRYSTAL
PRIMVEC
        5.17600016     0.00000000     0.00000000
        0.00000000     5.50899976     0.00000000
        0.00000000     0.00000000     9.26300011
PRIMCOORD
22 1
Ti      1.37465602     3.11913301     3.35353901     1.68233333     0.00005965     0.62798215
Ti      4.54719698     3.07576498     5.60689702    -0.88691162    -0.23115871    -0.48150378
Ti      4.12753498     2.05550103     1.66710498     0.39309894    -2.00727050    -0.01388653
Ti      1.23564602     3.08607002     8.16180601     1.39836054    -2.64566073    -0.42950089
Ti      1.62778298     0.35620000     1.12464199     0.73460995     0.81394369     1.22636884
Ti      3.39989700     5.23092198     7.89263900    -1.08373581     0.96887585     0.15491237
Ti      1.29225503     0.40242401     5.99047798     2.22861993    -0.31030913    -1.67017149
Ti      3.96154001     4.99480299     3.61616999    -2.41186638     1.72630847     1.44380146
O       3.12096201     3.16832602     4.51063899    -0.19924231     0.11151856     0.29931817
O       0.82879000     2.12673701     0.61222903    -0.83574665    -0.60634040    -0.99430124
O       4.83480302     3.50157602     7.42928700    -2.18128102     1.41119240     0.52259157
O       3.47226400     0.46915098     0.46487698     0.75193303     0.93616703    -1.51312100
O       1.89247702     4.41484002     9.13878601    -0.20774161     0.45771515     0.58442174
O       3.00906599     0.30560298     5.10935499     0.89224229     0.48489841    -1.52316527
O       0.43401901     4.50584602     4.64987399    -0.37300807     0.71643482     1.54129516
O       4.72462101     3.47391201     2.75964100     1.11388381    -1.19340703    -2.59982515
O       0.71076299     2.06735999     4.85381599     0.36460750    -1.92310232     0.43259881
O       2.51009402     1.44878200     2.44307600    -0.34604773     3.17835057     0.57935255
O       2.17912202     4.29047400     6.69131398    -0.37394807    -1.38748219     1.98490857
O       4.96341003     0.67776101     2.53942103     1.21944126    -0.07978445    -0.33971793
O       2.37277501     1.24546999     7.35252201    -0.75694874     1.31896098     0.94080248
O       2.31978199     4.66371202     2.61633900    -1.12265230    -1.73991012    -0.77316058
