# total energy = -19889.18812790 eV

CRYSTAL
PRIMVEC
        6.63013915     0.00000000     0.00000000
        0.00002171     3.02420264     0.00000000
        0.00000000     0.00000000    10.09055359
PRIMCOORD
24 1
Ti      2.40311931     1.79213970     3.74352341    -1.49476666     1.12541058    -2.56150773
Ti      4.22704126     1.23206299     6.34703032     1.49476666    -1.12541058     2.56150773
Ti      5.71807541     1.23206402     1.30171309    -1.49264524    -1.12528048     2.56559372
Ti      0.91208517     1.79213877     8.78884073     1.49264524     1.12528048    -2.56559372
Ti      2.40310860     0.28003843     1.30175357    -1.49513047     1.11783919     2.56215616
Ti      4.22705197     2.74416432     8.78880026     1.49513047    -1.11783919    -2.56215616
Ti      0.91207446     0.28003730     6.34698984     1.49256682     1.11837964     2.56420610
Ti      5.71808612     2.74416544     3.74356389    -1.49256682    -1.11837964    -2.56420610
O       2.09848847     1.06487315     5.14913230     8.41538626    -2.49408695     5.87076041
O       4.53167210     1.95932949     4.94142144    -8.41538626     2.49408695    -5.87076041
O       1.21663501     1.06488535     0.10388790    -8.41563772    -2.49415483     5.86930747
O       5.41352562     1.95931734     9.98666555     8.41563772     2.49415483    -5.86930747
O       4.53166144     0.44722817     0.10385516    -8.41584726     2.49416974     5.86923240
O       2.09849913     2.57697452     9.98669828     8.41584726    -2.49416974    -5.86923240
O       5.41351495     0.44721597     5.14916503     8.41553641     2.49542341     5.87145872
O       1.21664557     2.57698672     4.94138870    -8.41553641    -2.49542341    -5.87145872
O       0.24090140     1.83949147     2.72571028     4.30003639    -1.68720351     1.15005744
O       6.38925918     1.18471118     7.36484345    -4.30003639     1.68720351    -1.15005744
O       3.55597941     1.18468300     2.31959866     4.30159654     1.68773085    -1.15642530
O       3.07418117     1.83951969     7.77095493    -4.30159654    -1.68773085     1.15642530
O       0.24089073     0.32739015     2.31956646     4.29905603    -1.68725519    -1.15615044
O       6.38926984     2.69681255     7.77098713    -4.29905603     1.68725519     1.15615044
O       3.07417051     0.32741832     7.36487560    -4.30218969    -1.68763675    -1.14974145
O       3.55599007     2.69678437     2.72567808     4.30218969     1.68763675     1.14974145
