# total energy = -19514.94917665 eV

CRYSTAL
PRIMVEC
        5.17600016     0.00000000     0.00000000
        0.00000000     5.50899976     0.00000000
        0.00000000     0.00000000     9.26300011
PRIMCOORD
23 1
Ti      2.00582298     3.18884799     3.44232198    -2.96536570    -1.06037373     2.31422279
Ti      3.34774499     2.23846300     5.78414097    -1.16309937    -0.38578723    -1.41362364
Ti      4.23334201     2.36045497     1.48400701     1.99325104    -1.40043182    -0.23601682
Ti      0.84716298     3.31644400     7.76910003    -0.65403566     1.22751864     1.34432390
Ti      1.94094198     0.21695003     1.48582600    -0.33015291     0.31302987    -2.36699676
Ti      3.28118502     5.12578801     7.98204799    -2.57430463    -0.14324829     2.07223715
Ti      0.70430502     0.61529497     5.94961798     1.24745164    -2.15916876    -4.11339737
Ti      4.56729699     5.09572900     3.20278397     2.08601879     0.11511450     2.61779562
O       1.61978600     1.86965202     4.65646298     0.48907542    -0.61663253     1.89337444
O       3.34027401     3.56484202     4.62678302     2.39604946     1.70885375    -0.44679362
O       5.09330701     2.43190401     9.13442501     0.13529741     1.02073270    -0.62844932
O       3.42051602     0.59919301     0.44821498    -0.02377577     0.48855143    -1.81805266
O       1.68337898     4.39926601     9.14462199     0.24701651     0.83441533     0.30116679
O       4.42004601     0.82598197     4.47890301    -1.45206627     0.83944133     1.71616083
O       0.97505697     4.76878202     4.47900101    -0.28351642    -0.19363216     0.06864334
O       0.25117102     3.29543698     2.67378400    -1.49714287     0.67740649    -1.72421327
O       5.06055300     2.13622998     6.50806000    -0.24899344     1.19226212     1.14268403
O       2.80634602     1.68261898     2.52327101    -0.26950236     0.58969404    -1.12690002
O       2.57614302     3.52827900     7.01391398    -0.04186735    -0.72113891     0.54026585
O       0.25228102     0.83599702     1.96371100    -0.58828996    -0.79363273     0.29639894
O       4.80653199     4.87214298     7.11844802     2.94770608    -0.80584754     0.08130268
O       2.51560302     0.78474002     6.86244302    -1.15943323     0.29323262     0.10533505
O       2.86275002     4.53470898     2.43288002     1.70967985    -1.02035964    -0.61946768
