# total energy = -39040.37865407 eV

CRYSTAL
PRIMVEC
        7.60629642    -0.00000847    -0.00005503
       -0.00000847     7.60629642    -0.00005503
       -3.80314186    -3.80314186     9.70738094
PRIMCOORD
46 1
Ti      1.92142871     4.75396772     6.20687827    -0.00827176    -0.00027048    -0.01541428
Ti      3.80278569     6.62415430     1.18062936     0.01224565     0.01916707     0.00792671
Ti      1.81884957     0.95082360     5.94904263     0.01084569    -0.00024194     0.02632631
Ti      3.80285625     2.88390896     1.18058980     0.01224308    -0.01940567     0.00801413
Ti     -1.91446584     4.75404954     6.08861952     0.00264001     0.00003188    -0.00390731
Ti     -0.00315893     6.67143462     1.24614269    -0.00958919     0.00497072     0.02629031
Ti     -1.82006892     0.95086321     6.02111954    -0.02785586     0.00019463    -0.02147489
Ti     -0.00315527     2.83648636     1.24615974    -0.00955268    -0.00480128     0.02647543
Ti      3.79776878     0.95081031     8.63391252     0.04882167    -0.00002134     0.00057490
Ti      5.68420222     2.87332879     3.63312771    -0.01366105     0.00149484     0.04465674
Ti      3.82936599    -2.85236042     8.54659426    -0.00141874     0.00001106    -0.01598301
Ti      5.68418922    -0.97203487     3.63315141    -0.01369113    -0.00129866     0.04464080
Ti      0.02911735     0.95066090     8.39941146     0.00525688     0.00021083    -0.02418663
Ti      1.91552441     2.79284507     3.59548884    -0.00144419     0.04632307     0.02980064
Ti     -0.02130402    -2.85256183     8.52401281    -0.00402892     0.00036021    -0.03612041
Ti      1.91547559    -0.89139809     3.59555210    -0.00136551    -0.04698744     0.02971734
O       2.00377111     2.91381447     5.60193497    -0.01463010    -0.01677954    -0.00937682
O       3.84092386     4.75396102     0.72634756     0.01647024    -0.00003085     0.00749194
O       2.00376207    -1.01223601     5.60197184    -0.01458922     0.01656819    -0.00901043
O       3.77734708     0.95077130     0.79144289    -0.01147767     0.00006788    -0.03875631
O      -2.03913530     2.82513710     5.66712583     0.00303185     0.02008624     0.02292114
O      -0.03855706     4.75394552     0.84176068    -0.01736601    -0.00003111     0.00480437
O      -2.03912140    -0.92356122     5.66716196     0.00304136    -0.01980213     0.02287126
O       0.02347351     0.95079473     0.87704494     0.00880449     0.00007790    -0.03444174
O       3.79813456     2.86707662     8.96678509    -0.00499951     0.00575567     0.01443444
O       5.73516271     4.75390321     4.11230361     0.02169421    -0.00002211     0.00599376
O       3.79811215    -0.96547285     8.96681337    -0.00493909    -0.00564537     0.01445680
O       5.65477881     0.95076392     4.01564253    -0.01676540     0.00013267     0.00803162
O       0.00973089     2.82971448     8.86978868     0.01105729     0.00761253    -0.01789308
O       0.00979155    -0.92811895     8.86979091     0.01101538    -0.00754722    -0.01780592
O       1.96135151     0.95074514     3.99257942     0.03241108    -0.00009410    -0.01418530
O       2.02222839     0.95088131     7.95641964     0.01176820     0.00005271    -0.00853709
O       3.78102635     3.02131882     3.21503616     0.01997054    -0.00573382    -0.00791180
O       1.89943976    -2.85236702     8.13080680     0.00749348     0.00001054     0.01155994
O       3.78099739    -1.11969546     3.21508243     0.02014177     0.00551528    -0.00806041
O      -2.00425787     0.95088704     7.99578793    -0.02428973     0.00001106    -0.01461004
O       0.02066923     2.93910640     3.27560757    -0.02068145    -0.02783812    -0.01695180
O      -1.90082923    -2.85230502     8.11315954     0.00167327     0.00002905    -0.01310389
O       0.02067315    -1.03757196     3.27565526    -0.02082800     0.02768693    -0.01710633
O       3.81267460     4.75396664     6.55452872     0.00380986     0.00002365    -0.00693555
O       5.69666938     6.67664806     1.66001434    -0.00809101    -0.00018461     0.01256113
O       5.69667948     2.83112280     1.66000254    -0.00813292     0.00035713     0.01263312
O      -0.01403372     4.75390895     6.48569195    -0.00712736     0.00008279     0.01857314
O       1.90451836     6.60458772     1.61650512     0.00870987    -0.03152251    -0.02743008
O       0.01089134     0.95074902     6.40190555    -0.01708370     0.00008253     0.00589734
O       1.90454519     2.90337473     1.61653248     0.00873507     0.03134073    -0.02744911
