# total energy = -19871.52459341 eV

CRYSTAL
PRIMVEC
        9.85980852     0.00000000     0.00000000
        0.00003042     3.49793931     0.00000000
        0.00000000     0.00000000    15.68612374
PRIMCOORD
24 1
Ti      3.57372415     2.07287572     5.81944016     0.29044580     0.03129188     1.93602726
Ti      6.28611438     1.42506392     9.86668405    -0.29044580    -0.03129188    -1.93602726
Ti      8.50346027     1.42506520     2.02355927     0.29045326    -0.03108233    -1.93657593
Ti      1.35637833     2.07287458    13.66256507    -0.29045326     0.03108233     1.93657593
Ti      3.57370935     0.32390613     2.02362218     0.29117446     0.03131939    -1.93607251
Ti      6.28612925     3.17403364    13.66250217    -0.29117446    -0.03131939     1.93607251
Ti      1.35636346     0.32390479     9.86662114    -0.28995267     0.03114507    -1.93680553
Ti      8.50347514     3.17403499     5.81950307     0.28995267    -0.03114507     1.93680553
O       3.12070221     1.23168400     8.00450906     0.32737406     0.54182265    -2.11081529
O       6.73913639     2.26625571     7.68161515    -0.32737406    -0.54182265     2.11081529
O       1.80928082     1.23169811     0.16149746    -0.32994105     0.54221218    -2.11262586
O       8.05055785     2.26624160    15.52462628     0.32994105    -0.54221218     2.11262586
O       6.73912152     0.51728599     0.16144652    -0.32748487    -0.54209416    -2.10964852
O       3.12071708     2.98065365    15.52467722     0.32748487     0.54209416     2.10964852
O       8.05054298     0.51727195     8.00455994     0.32847706    -0.54228031    -2.11219211
O       1.80929549     2.98066776     7.68156427    -0.32847706     0.54228031     2.11219211
O       0.35824791     2.12764499     4.23721343    -1.56630994     0.53082450     0.33001535
O       9.50159069     1.37029465    11.44891071     1.56630994    -0.53082450    -0.33001535
O       5.28816526     1.37026194     3.60589851    -1.56327321    -0.53083633    -0.33127057
O       4.57167334     2.12767777    12.08022544     1.56327321     0.53083633     0.33127057
O       0.35823303     0.37867534     3.60584844    -1.56652669     0.53079750    -0.33119858
O       9.50160557     3.11926437    12.08027551     1.56652669    -0.53079750     0.33119858
O       4.57165854     0.37870805    11.44896071     1.56324416     0.53062138    -0.33110782
O       5.28818006     3.11923159     4.23716336    -1.56324416    -0.53062138     0.33110782
