# total energy = -4987.22620947 eV

CRYSTAL
PRIMVEC
        3.93720717     0.00000000     0.00000000
        1.68636331     3.55777727     0.00000000
       -2.81182252    -1.77891222     5.16360731
PRIMCOORD
6 1
Ti      1.26467303     2.66846989     1.29090177     0.00066334    -0.00066334     0.00000000
Ti      1.54707521    -0.88960462     3.87270522    -0.00066334     0.00066334     0.00000000
O       0.42163172     0.88943964     0.84110937    -0.00032602    -0.00046357    -2.14156955
O       2.39011637     0.88942549     4.32249767     0.00032602     0.00046357     2.14156955
O      -0.42159625    -0.88941724     3.42291287    -0.00046357    -0.00032602    -2.14156955
O       3.23334428     2.66828234     1.74069417     0.00046357     0.00032602     2.14156955
