# total energy = -4987.77077196 eV

CRYSTAL
PRIMVEC
        3.43556928     0.00000000     0.00000000
        0.00000000     3.58868132     0.00000000
        0.00000000    -0.00006272     4.67276173
PRIMCOORD
6 1
Ti      1.71778449     1.79430925     2.33638081     0.00000000     0.00000000     0.00000000
Ti      0.00000000     0.00000000     0.00000000     0.00000000     0.00000000     0.00000000
O       1.71778449     0.69936890     0.91065242     0.00000000    -0.83360338    -0.72051593
O       1.71778449     2.88924960     3.76210916     0.00000000     0.83360338     0.72051593
O       0.00000000     1.09491526     3.24703425     0.00000000     0.83325911    -0.72017706
O       0.00000000     2.49370325     1.42572737     0.00000000    -0.83325911     0.72017706
