# total energy = -19515.81373903 eV

CRYSTAL
PRIMVEC
        5.17600016     0.00000000     0.00000000
        0.00000000     5.50899976     0.00000000
        0.00000000     0.00000000     9.26300011
PRIMCOORD
23 1
Ti      1.74435099     3.27186600     3.44461702     1.91090371    -0.81177033     1.45771859
Ti      3.35120301     2.26964599     5.80243802    -0.91582086    -0.45022424    -2.12009234
Ti      4.52773199     1.97308400     1.44676901    -1.92746882     0.25847387    -0.89386311
Ti      0.75413198     3.47107700     7.77013700     0.28397331    -0.67689278     2.35232372
Ti      2.06899700     0.36508499     1.31694098     3.07880205    -2.43828576    -0.86615870
Ti      3.18299200     5.06865301     7.73372601    -0.20538185     1.37848024     5.63205113
Ti      0.71280202     0.57092801     5.97056102    -0.41806307     0.54836483    -2.25781971
Ti      4.60635800     4.99012702     3.38250400    -2.47658390     0.33283688     2.12540579
O       1.59604198     1.88150601     4.89672200     0.36192456     0.82839098    -0.70544566
O       3.36484202     3.53842697     4.48188799     1.46351309     0.54814320     0.71240230
O       4.90483503     2.99901602     0.02673398     0.88501517     0.15428579    -0.74695023
O       3.58951099     0.73246101     0.11159798    -0.04149016     0.54387645     1.23043530
O       2.01836998     4.33332301     9.22848299    -1.26572370     1.01440650    -1.60954409
O       4.32807299     0.87841899     4.88198901    -0.96524725    -1.18587189    -1.53614858
O       1.00799302     4.82279599     4.41519801    -0.12270620    -0.82981460     1.01510816
O       0.06384301     3.42192098     2.62573301     0.17192665    -1.70592372    -0.93950664
O       4.92570001     2.07000599     6.81188098     1.59291007     0.50610230     1.40547967
O       2.81568103     1.78988500     2.42505799     0.02249665    -0.15364944    -1.17968762
O       2.64759099     3.59546397     6.97956302    -2.30846352    -2.69485650    -0.87156239
O       0.42184502     0.53690599     2.19594599    -0.67492949     1.08391039    -0.76985619
O       4.83811599     4.76650000     7.05238299     2.25815961     0.29089523    -0.36566011
O       2.30915902     0.87480000     7.00208200    -0.80279409     1.62081709    -0.65278611
O       2.79001402     4.41942301     2.36123900     0.09504832     1.83830550    -0.41584267
