# total energy = -19950.43619676 eV

CRYSTAL
PRIMVEC
        5.25441292     0.00000000     0.00000000
        1.89916405     5.25992626     0.00000000
        0.00000000     0.00000000     9.55611509
PRIMCOORD
24 1
Ti      3.02991490     3.11702735     3.54525056     1.91146241    -2.90074126     1.13462285
Ti      4.12366226     2.14289877     6.01086464    -1.91146241     2.90074126    -1.13462285
Ti      5.30531376     2.14290056     1.23276889    -3.97642154    -0.03819247     1.25435094
Ti      1.84826342     3.11702572     8.32334641     3.97642154     0.03819247    -1.25435094
Ti      2.08033300     0.48706436     1.23280720     1.91070677    -2.90139329    -1.13705743
Ti      5.07324417     4.77286187     8.32330810    -1.91070677     2.90139329     1.13705743
Ti      0.89868142     0.48706242     6.01082633     3.97647965     0.03827886     1.24794143
Ti      6.25489576     4.77286386     3.54528887    -3.97647965    -0.03827886    -1.24794143
O       2.33178286     1.85210939     4.87641239     0.41445736     1.19367391    -0.99614395
O       4.82179430     3.40781673     4.67970281    -0.41445736    -1.19367391     0.99614395
O       1.63291796     1.85213061     0.09838559     0.66554187    -0.69154833     0.34149791
O       5.52065925     3.40779555     9.45772934    -0.66554187     0.69154833    -0.34149791
O       3.87221239     0.77785363     0.09835458    -0.41502068    -1.19436168    -0.99666640
O       3.28136477     4.48207249     9.45776035     0.41502068     1.19436168     0.99666640
O       4.57107733     0.77783240     4.87644340    -0.66568431     0.69173679     0.34202061
O       2.58249977     4.48209373     4.67967180     0.66568431    -0.69173679    -0.34202061
O       1.34608417     3.19938524     2.58134509     0.17322403     0.08371078    -0.01830163
O       5.80749298     2.06054088     6.97477010    -0.17322403    -0.08371078     0.01830163
O       3.56208907     2.06049189     2.19674288     1.57285135    -0.32515314    -1.10963171
O       3.59148808     3.19943423     7.35937216    -1.57285135     0.32515314     1.10963171
O       0.39650226     0.56942214     2.19671235     0.17290110     0.08302069     0.01798796
O       6.75707490     4.69050398     7.35940269    -0.17290110    -0.08302069    -0.01798796
O       2.64190617     0.56947114     6.97480053    -1.57293928     0.32538788    -1.10920543
O       4.51167098     4.69045499     2.58131461     1.57293928    -0.32538788     1.10920543
