# total energy = -4989.44435731 eV

CRYSTAL
PRIMVEC
        3.92856266     0.00000000     0.00000000
        0.96702207     3.80768603     0.00000000
       -2.44782814    -1.90387084     5.05397297
PRIMCOORD
6 1
Ti      0.72513898     2.85591034     1.26349316     0.00002777    -0.00002777     0.00000000
Ti      1.72261779    -0.95209500     3.79047948    -0.00002777     0.00002777     0.00000000
O       0.24179671     0.95191608     0.82325084    -0.00048054    -0.00058441    -0.90533590
O       2.20595989     0.95189916     4.23072181     0.00048054     0.00058441     0.90533590
O      -0.24176864    -0.95189425     3.35023716    -0.00058441    -0.00048054    -0.90533590
O       2.68952523     2.85570944     1.70373548     0.00058441     0.00048054     0.90533590
