# total energy = -19518.52787701 eV

CRYSTAL
PRIMVEC
        7.60600008     0.00000000     0.00000000
        0.00000000     7.60600008     0.00000000
       -1.89786986    -1.89786986     4.85670466
PRIMCOORD
23 1
Ti      3.80945500     6.58793100     1.24175400     0.53190796     0.85929025     0.80613961
Ti      3.81589001     2.84641098     1.08959998     0.58747312    -0.48941301     0.72810532
Ti     -0.03736399     6.63029598     1.26859498    -0.36249071     0.59690496    -0.55392587
Ti      0.04909500     2.87770600     1.01339200    -0.47879564    -0.59520135     2.45672829
Ti      5.59742824     2.88263322     3.68123482    -1.02162154     0.21517185    -1.50334952
Ti      5.77600720    -1.00613375     3.68327782    -2.61130101    -0.16610901     0.19896669
Ti      1.88575620     2.91695222     3.62522681     1.42561064    -1.58377005    -0.40676255
Ti      1.86783324    -1.00221477     3.66220683     1.66489456     1.09147715     0.08842438
O       3.82425000     4.73074799     0.75317200    -0.64868031     0.57885041     0.70983377
O       4.12406902     0.95571099     0.66782598    -0.50482215    -0.56686135     0.75009109
O       0.14259999     4.81072000     0.77468898     0.70044101    -0.42116125     0.72530230
O      -0.16855100     0.93766399     0.78735098     0.62110728    -0.38788731     0.27194851
O       5.47283722     4.70651220     4.10850079     0.92939115     1.23103154    -0.09430913
O       5.74006522     0.96653023     4.08769783     0.67056092    -0.00232736    -1.76809688
O       1.66327024     4.69681021     4.06115382    -0.12227426     1.00035748    -0.41842328
O       1.83796123     0.99997921     4.06276781    -0.88306473    -0.47118774    -0.15772053
O       3.78387124     2.72151621     3.43537881    -0.09061111     0.42223289    -1.29009160
O       3.84624520    -0.71294776     3.28712181    -0.19225688    -1.03549110    -0.85643658
O      -0.03064577    -0.89059378     3.25982182     0.80065262    -0.19375918    -0.10509619
O       5.67864399     6.43612799     1.67312998     0.84129021     0.26676542     0.06625118
O       5.78144699     3.04179100     1.69284702     0.45248270    -0.38142484     0.48617933
O       2.00531602     6.81278799     1.72349300    -1.52750144    -0.47790501    -0.63576463
O       1.96155899     2.68878803     1.56263999    -0.78239187     0.51041662     0.50200602
