# total energy = -39033.16391662 eV

CRYSTAL
PRIMVEC
        7.60600008     0.00000000     0.00000000
        0.00000000     7.60600008     0.00000000
       -3.79573973    -3.79573973     9.71340985
PRIMCOORD
46 1
Ti      1.84906543     4.67725743     6.12657163     1.06334413     1.06736533    -0.05196587
Ti      3.90274000     6.74656400     1.31274800    -0.21145120     1.31637034     0.02090899
Ti      1.95568544     0.76612943     6.21708660     0.73538180    -0.41575319    -1.23590352
Ti      3.62392000     2.93849201     1.30859501     1.72959614    -1.26845679    -1.18131873
Ti     -1.83253854     4.61522743     5.83472460    -0.74393921    -0.44497816     1.03963932
Ti      0.01279402     6.63582900     1.20467503    -0.06687133    -0.53343571     2.07279354
Ti     -1.63289558     0.93144843     5.93204363    -0.73015500     1.78748095     1.60174541
Ti     -0.07644399     2.83925100     1.21894000    -1.37915259     1.50367450    -0.49850186
Ti      3.86447345     1.02780044     8.50843462     0.08844932     0.08599469    -0.12929028
Ti      5.63700102     2.83441999     3.57461000    -0.19632591     0.24319894    -1.68544462
Ti      3.95567747    -2.81736556     8.44527462     0.77553062     0.89180237    -0.95159469
Ti      5.50494801    -0.96151400     3.81275998    -0.07700071    -0.18729105    -3.31236989
Ti     -0.01777157     1.08241243     8.45008563    -0.31677957    -0.47358015     0.36330472
Ti      1.81781598     2.69303600     3.44952498     0.75823377     0.02743034     2.79092298
Ti      0.07083942    -2.75679556     8.41854762    -2.41631285     0.24283847     2.53285663
Ti      1.77329302    -1.36986300     3.63798998    -0.30165325     1.56597621    -0.52319783
O       1.72373245    -1.10282756     5.65001862     0.04495756     0.59284827     0.74740325
O       3.77872700     0.96190702     1.08148002    -0.80994459     1.06144999    -1.26404066
O      -1.96805956     2.69579243     5.46056962     0.13195986     2.94104126     0.88068338
O      -0.05735202     4.79592802     0.87913698    -0.21887938     1.01479525    -1.43283673
O      -1.81922153    -0.93476457     5.63724962     0.40629950    -0.79252099     1.32794725
O       0.28579599     1.09694602     0.91448401    -0.22588358    -1.02402629    -0.72734350
O       3.89948747     3.04145143     9.05456661    -0.53710211    -0.61051459    -1.24913057
O       5.54586500     4.69969999     3.73607500     0.83893430     1.49509550     2.82999013
O       3.83008947    -0.81156253     8.85560464     0.50502193    -1.56612482    -0.10300049
O       5.70062903     1.00636098     3.97338199     0.23200075    -2.35726719     0.12966438
O       0.23533047     2.82588843     9.12937465    -0.54328844    -0.06132829     0.22782322
O       1.97197198     4.50738597     4.21691698    -0.40293984    -0.98312054    -0.19765157
O      -0.27806354    -0.89452154     8.85848463     0.89212119     0.77427052     0.42601987
O       1.85050501     1.01559798     4.21640400    -0.10006120     0.19985578     0.05284622
O       1.96113242     0.87457045     8.12711664    -0.77658631    -0.13932479     0.63765773
O       3.81349802     3.12974598     3.24107699    -1.83696467    -1.53187386    -0.62125177
O       1.76690347    -2.98073257     8.05791365     3.44373274     0.44396875    -0.00318663
O       3.63746599    -0.93104398     3.45694098     1.50732444    -0.12730925     0.30767117
O      -1.92208353     1.41123947     8.02381362     1.18965245    -1.48464808    -0.40631493
O      -0.00951699     2.89741901     3.11239399    -2.20351670    -0.45392123     1.11839661
O      -1.71490953    -2.77835456     7.86813560    -2.52849912    -0.66527705     0.01790543
O      -0.13275999     6.36034700     3.08945701     2.76915241     0.43914973     2.30772047
O       3.80075644     4.57008845     6.44977161     0.28912477     0.20622183     0.70203998
O       5.71636199     6.85464501     1.84764200    -1.03369853    -0.24699646    -1.63205873
O       3.73486143     1.27364344     6.53531962    -0.14667172    -0.82935591    -0.57045653
O       5.48130400     3.09369800     1.42934601     1.67664219    -0.53046737     0.23172153
O       0.03727043     4.39293843     6.28165363    -0.52529663     0.22703929     0.16222664
O       2.07886499     6.28855802     1.71714800    -1.66538564     0.20324218    -0.34297346
O       0.20743447     1.55213244     6.58458660    -0.76838372    -1.35819372    -1.21805672
O       1.76235900     3.28526302     1.77132501     1.68528264    -0.24534504    -3.19199928
