# total energy = -39037.36669865 eV

CRYSTAL
PRIMVEC
        7.60600008     0.00000000     0.00000000
        0.00000000     7.60600008     0.00000000
       -3.79573973    -3.79573973     9.71340985
PRIMCOORD
46 1
Ti      2.02504645     4.72538747     6.14575261    -1.66908212    -0.57814824     0.07506544
Ti      3.89930898     6.87422198     1.30698700    -0.39185709    -0.62923094    -0.19437907
Ti      1.89622746     0.71875643     6.08678961    -0.41863746     0.24547231    -0.60215361
Ti      3.71005498     2.79704600     1.25288403    -0.19083249     0.18567691     1.05055828
Ti     -1.84231356     4.58004947     6.14974260     0.95685388     0.80024716    -0.96101444
Ti      0.06241497     6.62879698     1.16436098    -0.13102707     0.72978682     0.36142165
Ti     -1.93933757     0.87170945     5.97932361     0.20560837     0.30928120     0.03022230
Ti      0.01126200     2.91392500     1.11497901    -0.60335483    -0.30960696     0.87052983
Ti      3.73443746     1.00046346     8.39048662     0.32096198     0.77552753    -0.04265693
Ti      5.60547798     2.79432999     3.51312198    -0.64435212    -0.18178735     1.40652019
Ti      3.84506847    -2.77968353     8.50837260    -1.02630429    -1.10669731     0.38291556
Ti      5.77680499    -1.07665303     3.68704799    -0.10912049     0.20308586    -0.91558355
Ti     -0.05279654     1.03152045     8.38582463     0.28638397     1.32270297    -0.32764762
Ti      1.74754098     2.80069600     3.58103500     0.57319475    -0.38513288     0.24181980
Ti      0.01333543    -2.63126154     8.55831561     1.33248422    -1.43049985    -0.08519662
Ti      1.93583198    -1.03177800     3.62724599     0.08864396    -0.03178270     0.89823271
O       2.02778643    -1.08506054     5.88812864    -0.28387612     0.60224951    -1.30814769
O       3.89050601     1.02184302     0.85760402    -0.33121683     0.59497535    -0.52460911
O      -1.81675758     2.82893443     5.67261364    -0.30487793    -0.91731801    -0.26116684
O      -0.09523698     4.78346002     0.58014400     0.16360347    -0.68046199     1.07690567
O      -1.89542554    -0.99499955     5.60788664     0.17042384     0.43184239     0.63175448
O      -0.12098701     0.95784702     0.96745899     0.61596867     0.91929519    -0.92927262
O       3.89572047     2.90628146     8.96324564     0.29258214     0.33703241    -1.05124991
O       5.60413001     4.69432800     4.17633200    -0.23034110    -0.56721102    -0.74210884
O       3.71979544    -0.94052154     8.84697762     0.20821084     0.35073640     0.08657756
O       5.62538701     0.80682301     3.84780199     0.62441886     1.39975099     1.06834595
O       0.05567945     2.85021445     9.12639464    -0.44214326    -1.14519137    -0.70560867
O       2.04646601     4.55924598     4.09971798    -0.49325244     0.72626312     0.93572095
O       0.06129243    -0.74003253     9.07431365     0.07403211     0.24748574    -1.40209506
O       1.72506301     0.87177300     4.18094002    -0.20060988     0.69980492    -0.70852045
O       1.84807444     1.07811244     7.99844661     0.91069922     0.00494115     0.74549755
O       3.62442299     2.65429599     3.17311798     0.66606612    -0.11013427     1.15240486
O       1.93028446    -2.99216757     8.20730562     0.37901828     0.63697793    -0.49093948
O       3.72374300    -0.90609100     3.31284797     1.78787175    -0.57601628    -0.19731759
O      -1.89578554     1.07327846     7.95132862    -1.18688594    -0.57245427     0.00132540
O      -0.18083198     2.91814101     3.15446999     1.52670517    -0.20531115    -0.32376603
O      -1.75392556    -2.58271857     8.09135765    -1.69615944    -0.51055957     0.48903686
O       0.14633100    -1.21683002     3.11423299    -2.01633004    -0.07860611     0.83098625
O       3.81186043     4.76824342     6.56079961     1.61372804    -0.85505898     0.35586189
O       5.69823201     6.48348401     1.63924798     0.23598133    -0.12127101     0.42896712
O       3.70279345     1.12890547     6.28372161     1.29164789    -0.09186838     0.78879932
O       5.49592998     2.98262899     1.66868801     1.69348601     0.89796248    -1.00988059
O       0.08942646     4.74898746     6.53221763    -0.34309379    -0.40041116     0.02688141
O       1.99121700     6.75923700     1.62028899    -0.64180158    -0.58647219    -0.11938871
O       0.02024547     0.99720246     6.42675964    -0.83904512    -0.11291698    -0.08607311
O       1.88382000     3.17372500     1.63401299    -1.82437372    -0.23694910    -0.94757451
