# total energy = -19944.77030164 eV

CRYSTAL
PRIMVEC
        5.79975029     0.00000000     0.00000000
        1.22234473     6.05045056     0.00000000
        0.00000000     0.00000000    10.43308743
PRIMCOORD
24 1
Ti      2.82649079     3.58549140     3.87060116     0.12740335    -1.77267524     0.85896860
Ti      4.19560395     2.46495930     6.56248668    -0.12740335     1.77267524    -0.85896860
Ti      5.49989456     2.46496147     1.34590108    -0.38721496    -0.33556997    -0.06045617
Ti      1.52220019     3.58548946     9.08718688     0.38721496     0.33556997     0.06045617
Ti      2.21531857     0.56026634     1.34594291     0.12740335    -1.77267524    -0.85896860
Ti      4.80677619     5.49018453     9.08714505    -0.12740335     1.77267524     0.85896860
Ti      0.91102787     0.56026400     6.56244485     0.38721496     0.33556997    -0.06045617
Ti      6.11106688     5.49018687     3.87064299    -0.38721496    -0.33556997     0.06045617
O       2.26606584     2.13046652     5.32392481     1.52452564     1.74627489    -0.54631592
O       4.75602890     3.91998418     5.10916303    -1.52452564    -1.74627489     0.54631592
O       1.49466471     2.13049089     0.10741450    -0.66676057     0.18269803     0.74427911
O       5.52743009     3.91995986    10.32567305     0.66676057    -0.18269803    -0.74427911
O       4.14485666     0.89475895     0.10738063    -1.52452564    -1.74627489    -0.54631592
O       2.87723808     5.15569175    10.32570692     1.52452564     1.74627489     0.54631592
O       4.91625785     0.89473463     5.32395868     0.66676057    -0.18269803     0.74427911
O       2.10583683     5.15571613     5.10912916    -0.66676057     0.18269803    -0.74427911
O       0.95421763     3.68022694     2.81823730     0.33668120     1.01097922     1.12343932
O       6.06787710     2.37022376     7.61485054    -0.33668120    -1.01097922    -1.12343932
O       3.58943883     2.37016725     2.39833981     0.75882718     1.12443202     0.32583911
O       3.43265590     3.68028345     8.03474785    -0.75882718    -1.12443202    -0.32583911
O       0.34304539     0.65500171     2.39830647     0.33668120     1.01097922    -1.12343932
O       6.67904935     5.39544905     8.03478119    -0.33668120    -1.01097922     1.12343932
O       2.82148366     0.65505816     7.61488382    -0.75882718    -1.12443202     0.32583911
O       4.20061108     5.39539254     2.81820396     0.75882718     1.12443202    -0.32583911
