# total energy = -19073.62896792 eV

CRYSTAL
PRIMVEC
        5.17600016     0.00000000     0.00000000
        0.00000000     5.50899976     0.00000000
        0.00000000     0.00000000     9.26300011
PRIMCOORD
22 1
Ti      1.75462799     3.36158499     3.33871400     0.67969940     1.26827141    -0.56009858
Ti      3.92072002     2.22734499     5.87837601    -0.00324473     0.01148178    -0.65581821
Ti      4.27883199     2.12193298     1.29733698     0.86173434     0.26715572    -1.21203211
Ti      0.65159098     3.29311998     8.15824502     1.39873283    -0.81504438     0.08160530
Ti      1.70197099     0.51295400     1.43430901    -0.12213619    -0.30321879    -3.14148582
Ti      3.11513100     5.16551203     7.96612600     0.44335425    -0.21906784     1.89039119
Ti      1.04610802     0.00488103     6.01180298    -0.47659040     1.99290959    -0.16012039
Ti      4.35848502     5.03587699     3.42188198    -0.23684394    -1.64472887     0.89195510
O       3.43780498     3.57030202     4.27270200     0.36225777    -1.56974519     2.55447961
O       0.89844999     1.95605301     0.18682598    -1.21301710    -0.20561660     0.08148266
O       4.11914498     3.58305397     8.56297698    -0.80863358     0.02477490     0.80100023
O       3.35363902     0.84914099     0.29988798     0.20214509    -0.26766248    -1.36434380
O       1.66890402     4.60159302     9.13192798    -0.76512922     0.77625438     0.27800989
O       4.33501400     0.88822798     4.64022899    -0.60087886     0.69672859     0.92792639
O       1.17998901     5.01318999     4.26342198    -1.30379378    -0.84826227     0.92920860
O       0.07608701     3.40676000     2.37165501     0.00573228     0.15680470     0.54289223
O       0.42138898     1.88912198     6.69073802    -1.20513563    -0.15730683    -0.53508610
O       2.44226302     1.89721099     2.34367699     1.37137680     0.99078963     1.02172515
O       1.98634502     4.07805198     6.82754003     0.06522351    -0.19231910    -0.82162974
O       5.13923298     0.59815498     2.13019402    -0.08446000     0.65589997    -0.72086997
O       2.70745401     1.10522299     6.82124599     0.40626813    -0.24663291    -0.57677861
O       2.64235098     4.71145000     2.34837402     1.02333826    -0.37146541    -0.25241378
