# total energy = -19910.94103809 eV

CRYSTAL
PRIMVEC
        8.14016481     0.00000000     0.00000000
        0.00002725     4.17136148     0.00000000
        0.00000000     0.00000000    12.29849551
PRIMCOORD
24 1
Ti      2.95043451     2.47194503     4.56265412     0.25858725    -0.26125220     2.68079847
Ti      5.18975774     1.69941664     7.73584152    -0.25858725     0.26125220    -2.68079847
Ti      7.02037758     1.69941812     1.58654456     0.25731661     0.26132934    -2.68040149
Ti      1.11981473     2.47194373    10.71195126    -0.25731661    -0.26132934     2.68040149
Ti      2.95042094     0.38626435     1.58659388     0.25858725    -0.26125220    -2.68079847
Ti      5.18977136     3.78509744    10.71190194    -0.25858725     0.26125220     2.68079847
Ti      1.11980111     0.38626275     7.73579220    -0.25731661    -0.26132934    -2.68040149
Ti      7.02039114     3.78509904     4.56270344     0.25731661     0.26132934     2.68040149
O       2.57642325     1.46880735     6.27582813     1.42662854     1.07369436    -1.97330210
O       5.56376906     2.70255432     6.02266750    -1.42662854    -1.07369436     1.97330210
O       1.49372615     1.46882413     0.12661989    -1.42733019     1.07476009    -1.97643884
O       6.64646622     2.70253753    12.17187537     1.42733019    -1.07476009     1.97643884
O       5.56375543     0.61687358     0.12658001    -1.42662854    -1.07369436    -1.97330210
O       2.57643681     3.55448809    12.17191532     1.42662854     1.07369436     1.97330210
O       6.64645266     0.61685679     6.27586802     1.42733019    -1.07476009    -1.97643884
O       1.49373953     3.55450494     6.02262762    -1.42733019     1.07476009     1.97643884
O       0.29576771     2.53725855     3.32213045    -2.09110906     0.65761490     0.21887424
O       7.84442454     1.63410317     8.97636519     2.09110906    -0.65761490    -0.21887424
O       4.36586030     1.63406423     2.82715645    -2.08849425    -0.65797125    -0.21862947
O       3.77433195     2.53729749     9.47133900     2.08849425     0.65797125     0.21862947
O       0.29575414     0.45157775     2.82711718    -2.09110906     0.65761490    -0.21887424
O       7.84443817     3.71978391     9.47137827     2.09110906    -0.65761490     0.21887424
O       3.77431838     0.45161669     8.97640440     2.08849425     0.65797125    -0.21862947
O       4.36587392     3.71974497     3.32209118    -2.08849425    -0.65797125     0.21862947
