# total energy = -4989.44769533 eV

CRYSTAL
PRIMVEC
        2.90076651     0.00000000     0.00000000
        0.67794695     4.49422019     0.00000000
       -0.00000426    -0.00005900     4.55797539
PRIMCOORD
6 1
Ti      1.78935434     2.24708051     2.27898764     0.00000000     0.00000000     0.00000000
Ti      0.00000000     0.00000000     0.00000000     0.00000000     0.00000000     0.00000000
O       1.58250417     0.87584577     0.88828224    -1.30874650     0.60821396     0.61196752
O       1.99620451     3.61831526     3.66969299     1.30874650    -0.60821396    -0.61196752
O       0.20684832     1.37121084     3.16727085     1.30820914    -0.60667567     0.61040531
O       0.47109396     3.12295028     1.39070438    -1.30820914     0.60667567    -0.61040531
