# total energy = -19071.66889147 eV

CRYSTAL
PRIMVEC
        5.17600016     0.00000000     0.00000000
        0.00000000     5.50899976     0.00000000
        0.00000000     0.00000000     9.26300011
PRIMCOORD
22 1
Ti      1.45455898     3.08528001     3.61975501     1.19252977    -0.71383620    -0.33555171
Ti      4.47871002     3.12003499     5.95760200    -0.47421290     0.76282345    -1.63875131
Ti      4.02982600     2.25235703     1.35474700     0.45305631    -0.29741041     1.70457338
Ti      1.62486801     2.69626398     8.27015002    -0.21332451     0.02859479     1.47217591
Ti      1.44918402     0.47597901     1.33677301    -0.07971785    -0.16407167     0.39521264
Ti      3.16035100     5.23109698     8.12724698    -0.39614647    -0.76236271     1.31332307
Ti      1.55866402     0.21190501     5.67152698     0.62908901     0.46162092    -0.91858557
Ti      3.96212798     4.89586399     3.35932498    -0.38382085     0.20025816     0.44216923
O       3.23342000     3.40997301     4.35485000    -0.50870298    -1.41431578     1.13567906
O       0.38837398     2.00751200     0.39812402     1.75056143    -0.17368245    -1.69964303
O       0.16290198     3.46579099     7.56154898    -1.60426432     0.72791069    -1.31072162
O       2.97620298     1.10217498     0.25565802     0.45870091     1.08834426    -0.53156292
O       1.74414398     4.54487199     9.23149898     0.04548823    -0.34295624     0.37870050
O       3.05568598     0.38019401     4.68401798    -0.48467575     1.55659117     0.39476810
O       0.29638900     4.41734001     4.76862200     1.16692543     1.98385956     1.19398038
O       5.07420000     3.35942700     2.57594902    -0.80640984     1.17551523    -0.89012627
O       0.71091201     2.07771298     5.13448499     0.39566181    -1.53597580     0.02238198
O       2.40949700     1.79001100     2.49174300    -1.20150729     0.77610372    -0.24152618
O       2.78475199     4.43391500     6.55343002     0.12576839    -1.73848521     0.52482714
O       4.90231699     0.84116799     2.33708598     0.28387303    -2.35142718     0.48591811
O       1.74424500     0.92334598     7.45088601    -0.27192563     0.72038121    -1.41436386
O       2.25978800     4.65936399     2.52403700    -0.07694595     0.01252025    -0.48287675
