# total energy = -19953.40356889 eV

CRYSTAL
PRIMVEC
        5.86930351     0.00000000     0.00000000
        0.00002921     5.65178855     0.00000000
        0.00000000     0.00000000    10.02960954
PRIMCOORD
24 1
Ti      2.12735757     3.34924461     3.72091369     0.07757947    -0.38433147     0.24779427
Ti      3.74197515     2.30254383     6.30869619    -0.07757947     0.38433147    -0.24779427
Ti      5.06190703     2.30254577     1.29385118     0.07818162     0.38412373    -0.24684579
Ti      0.80742574     3.34924295     8.73575887    -0.07818162    -0.38412373     0.24684579
Ti      2.12734302     0.52335045     1.29389142     0.07757947    -0.38433147    -0.24779427
Ti      3.74198976     5.12843816     8.73571863    -0.07757947     0.38433147     0.24779427
Ti      0.80741114     0.52334839     6.30865601    -0.07818162    -0.38412373    -0.24684579
Ti      5.06192158     5.12844027     3.72095393     0.07818162     0.38412373     0.24684579
O       1.85768192     1.99009076     5.11803311     0.88952695     0.79785449    -0.11628873
O       4.01165086     3.66169768     4.91157677    -0.88952695    -0.79785449     0.11628873
O       1.07702480     1.99011361     0.10326046    -0.88966656     0.79808640    -0.11674458
O       4.79230804     3.66167488     9.92634919     0.88966656    -0.79808640     0.11674458
O       4.01163625     0.83580335     0.10322794    -0.88952695    -0.79785449    -0.11628873
O       1.85769653     4.81598509     9.92638171     0.88952695     0.79785449     0.11628873
O       4.79229343     0.83578055     5.11806568     0.88966656    -0.79808640    -0.11674458
O       1.07703923     4.81600794     4.91154425    -0.88966656     0.79808640     0.11674458
O       0.21326324     3.43773820     2.70924782    -0.00104078    -0.13679791     0.17989167
O       5.65606954     2.21405029     7.32036206     0.00104078     0.13679791    -0.17989167
O       3.14792019     2.21399769     2.30558901    -0.00043117     0.13688713    -0.18010353
O       2.72141253     3.43779080     7.72402075     0.00043117    -0.13688713     0.18010353
O       0.21324863     0.61184386     2.30555695    -0.00104078    -0.13679791    -0.17989167
O       5.65608409     5.03994463     7.72405276     0.00104078     0.13679791     0.17989167
O       2.72139798     0.61189647     7.32039406     0.00043117    -0.13688713    -0.18010353
O       3.14793480     5.03989196     2.70921581    -0.00043117     0.13688713     0.18010353
