# total energy = -19870.97311093 eV

CRYSTAL
PRIMVEC
        7.29781103     0.00000000     0.00000000
        0.00002269     2.58902594     0.00000000
        0.00000000     0.00000000    11.61020183
PRIMCOORD
24 1
Ti      2.64511877     1.53425429     4.30730217    -0.99914160     0.71983973    -0.41670604
Ti      4.65271465     1.05477141     7.30290000     0.99914160    -0.71983973     0.41670604
Ti      6.29389980     1.05477224     1.49775253    -0.99784242    -0.71998140     0.41819086
Ti      1.00393367     1.53425355    10.11244974     0.99784242     0.71998140    -0.41819086
Ti      2.64510772     0.23974137     1.49779909    -0.99914160     0.71983973     0.41670604
Ti      4.65272575     2.34928443    10.11240318     0.99914160    -0.71983973    -0.41670604
Ti      1.00392257     0.23974048     7.30285345     0.99784242     0.71998140     0.41819086
Ti      6.29391090     2.34928531     4.30734873    -0.99784242    -0.71998140    -0.41819086
O       2.30981114     0.91163997     5.92459726     9.29605910    -1.16581137     4.20393495
O       4.98802233     1.67738578     5.68560491    -9.29605910     1.16581137    -4.20393495
O       1.33915279     0.91165048     0.11953356    -9.29435626    -1.16695654     4.20559280
O       5.95868073     1.67737527    11.49066827     9.29435626     1.16695654    -4.20559280
O       4.98801123     0.38287275     0.11949585    -9.29605910     1.16581137     4.20393495
O       2.30982224     2.20615294    11.49070597     9.29605910    -1.16581137    -4.20393495
O       5.95866963     0.38286229     5.92463492     9.29435626     1.16695654     4.20559280
O       1.33916374     2.20616345     5.68556726    -9.29435626    -1.16695654    -4.20559280
O       0.26515998     1.57479234     3.13620522     2.24094864    -0.58096771     6.30589741
O       7.03267350     1.01423336     8.47399691    -2.24094864     0.58096771    -6.30589741
O       3.91407514     1.01420936     2.66893275     2.24117361     0.58133127    -6.30651447
O       3.38375833     1.57481639     8.94126922    -2.24117361    -0.58133127     6.30651447
O       0.26514888     0.28027937     2.66889569     2.24094864    -0.58096771    -6.30589741
O       7.03268459     2.30874638     8.94130628    -2.24094864     0.58096771     6.30589741
O       3.38374728     0.28030337     8.47403391    -2.24117361    -0.58133127    -6.30651447
O       3.91408619     2.30872233     3.13616816     2.24117361     0.58133127     6.30651447
