# total energy = -39035.60751182 eV

CRYSTAL
PRIMVEC
        7.60600008     0.00000000     0.00000000
        0.00000000     7.60600008     0.00000000
       -3.79573973    -3.79573973     9.71340985
PRIMCOORD
46 1
Ti      1.94013245     4.75449847     6.15766661    -1.62968714     1.04988465    -0.16914574
Ti      3.78830601     6.77202600     1.27693302    -0.06722229     1.67948712    -0.47728691
Ti      1.84046345     1.10152944     6.00910761     0.93602099    -2.14172793     2.00017785
Ti      3.80514702     3.06084398     1.05762000     0.87314799    -1.52329897     1.05732466
Ti     -1.99553154     4.69680444     5.99848464     1.18797788     0.18727665     0.41118023
Ti      0.00817103     6.73875901     1.32739499     0.33183338    -1.86181362    -0.71597331
Ti     -1.95182658     0.88147044     6.04817862    -1.25104681    -0.67253964    -1.08723534
Ti     -0.06043998     2.97045701     1.11758901    -0.52106922     1.05022893     0.70319749
Ti      3.91124346     0.90864147     8.50027360    -2.83363030     1.37949506    -0.16387755
Ti      5.75611898     2.71847799     3.64827401    -0.11110435     0.19556564    -1.12743558
Ti      3.80085047    -2.92062455     8.60238465    -0.11062484    -0.65715339    -0.65850733
Ti      5.69030203    -1.04966599     3.54923097    -0.26349446    -0.10268836     0.86608208
Ti     -0.10359057     1.17947142     8.30862264     1.83368523    -0.57795721     2.00713731
Ti      2.01406200     2.66048900     3.42086898    -0.09968711     0.53858152     0.75151368
Ti     -0.05999854    -2.86478354     8.58422863     0.47377684     0.74272462     0.26883413
Ti      1.98843400    -1.13421899     3.85222400    -0.12203951    -0.11787870    -0.64514813
O       1.96183544    -0.90829454     5.93314565    -0.10006583    -1.45011635    -1.68968180
O       3.93374498     1.19936500     0.99478899    -0.51673819    -1.79319291    -1.95974184
O      -1.83240656     2.73597847     5.57895662    -0.18106204     1.32564868    -0.13906408
O      -0.06595401     4.84164698     0.81606498     0.67719566    -1.22289811    -0.72867996
O      -1.92869756    -0.97958557     5.63150662    -0.48534141    -1.63466737    -0.04222884
O      -0.10415002     0.92358300     0.81276800     0.09155290     0.89074591     0.16803759
O       4.02630744     2.82803747     8.96616861    -0.03817704     1.02949066    -0.03313588
O       5.63893902     4.70173299     3.94996198    -0.20808871    -0.67131066     1.72009128
O       3.91153244    -0.90984953     8.86275964    -0.78694992    -0.92416178     0.44800821
O       5.93560098     0.79834903     4.03811699    -0.41811321     1.44496154    -0.31465764
O      -0.32156953     2.87723545     9.05435160     0.15859059     0.60798051    -0.78780378
O       2.02832402     4.51987699     4.08517698    -0.14266131     0.80266605     0.97519948
O      -0.00036952    -0.58839356     8.96249061     0.03402522    -0.67007704    -0.04620711
O       1.89605500     0.80016400     4.09307898    -0.38622997     1.57048413    -0.43763432
O       1.85302543     1.18964047     8.05283264    -0.05989541     0.44010720    -0.64156967
O       3.84938100     2.64686798     3.28137002     0.21845926     0.12164254     0.17869842
O       1.86383144    -2.75821656     8.30410960     0.06873770    -0.48669561    -0.77397022
O       3.85422498    -0.87617999     3.11804799    -0.61637362    -0.33112504     2.91122005
O      -1.99005857     0.75324746     8.04882661     1.37496992     0.68395046    -0.32883367
O       0.04227200     2.81901500     2.96251099    -0.84443338    -0.55975302     1.82211629
O      -1.89194557    -2.69596055     8.06071860    -0.75043433    -0.10721247    -0.31767277
O      -0.13048098    -1.18626998     3.16957800     2.42395854     0.38940143     0.56436481
O       3.66336345     4.28083345     6.53738960     1.67056050     0.54753051     0.21195874
O       5.63618799     6.48140699     1.49073999     0.56971373     0.38111785     0.25205691
O       3.79843748     0.97193647     6.40698164    -0.91480810     0.62961403     0.15744207
O       5.62411799     3.26040698     1.62110598     0.25494786    -0.60130900    -0.25776836
O      -0.00218354     4.69391143     6.47372164    -0.22778877    -0.57041256     0.41613577
O       1.98338200     6.47994699     1.85515198    -1.67792517     0.19096130    -0.95994332
O      -0.13873757     1.00494247     6.54190962     2.06718468     0.28567306    -2.61965659
O       1.93435097     2.91533299     1.53368998     0.11835358     0.51276995    -0.76791707
