# total energy = -19955.41569871 eV

CRYSTAL
PRIMVEC
        5.93400000     0.00000000     0.00000000
        0.00000000     9.29699974     0.00000000
        0.00000000     0.00000000     4.64899994
PRIMCOORD
24 1
Ti      4.34642798     6.60449901     1.92698102     1.83592389     0.55928714     3.16386291
Ti      4.46326497     2.49387802     2.33408798    -1.46925590    -1.44763163     0.98717800
Ti      1.42260001     6.78973899     1.98693198    -1.40835930     0.76524337     2.72538527
Ti      1.43471499     2.60209699     2.28299099     1.60061464    -2.14756176     0.94871968
Ti      2.96906501     4.66992499     4.49212598     0.73959507    -3.98620742    -0.28404067
Ti      2.99468899     9.02298298     0.53114902     1.10113293     2.82774993    -3.81713547
Ti      0.03314401     4.77837299     4.52835600    -0.30047285    -3.66927693    -0.61294814
Ti      0.07553301     0.01707602     0.41800701    -1.11510560     0.88647376    -2.19228663
O       4.39434202     5.73730403     0.38455999     1.12500280     2.32401535     1.17662466
O       4.47324700     1.00917398     1.18840902    -0.17428126    -2.28670658    -2.02743798
O       1.57156499     5.69663300     0.62589101    -0.91939418     0.97334391    -0.42099696
O       1.52837799     0.96979198     1.26150300     0.24049594    -1.85818091    -2.29827834
O       4.49799800     8.41486100     4.05792801    -1.18026817     0.60031913     1.74902546
O       4.41095501     3.67769600     3.86959901     1.68187799     1.46875017    -0.32430725
O       1.49254502     8.28766098     4.13643098     0.73690286     0.74324218     1.22960972
O       1.58344999     3.75119602     3.85667798    -2.60833062     0.18988067    -0.98136396
O       2.92403700     5.73204898     2.82971100     0.44702836     0.21549889    -0.08252421
O       2.97459100     1.83606202     3.17661198    -0.37286460    -1.07774848     0.43028713
O       0.02310102     5.74791398     2.83615997    -0.49245051     0.84532453    -0.13206811
O       0.04587401     1.59713103     3.09533602     0.25469332     0.57628933     1.27123384
O       2.96612400     7.83747502     1.90845801     0.26302601     1.35894525    -0.43808452
O       3.00666401     3.28883402     1.30010299    -0.44924799     2.26932051    -0.90410716
O       5.84000500     7.89170701     1.61899499     0.11977077    -0.77674572     0.76583061
O       5.91320900     3.52921601     1.30451802     0.34396642     0.64637506     0.06782264
