# total energy = -4986.07801278 eV

CRYSTAL
PRIMVEC
        4.23026391     0.00000000     0.00000000
        1.24114437     4.04409365     0.00000000
       -2.73574232    -2.02207504     5.46192288
PRIMCOORD
6 1
Ti      0.93072882     3.03322527     1.36548040     0.00058595    -0.00058595     0.00000000
Ti      1.80493687    -1.01120686     4.09644167    -0.00058595     0.00058595     0.00000000
O       0.31033034     1.01101780     0.88970245    -0.00076902    -0.00131923    -1.41475904
O       2.42533517     1.01100052     4.57221961     0.00076902     0.00131923     1.41475904
O      -0.31029776    -1.01099372     3.62066372    -0.00131923    -0.00076902    -1.41475904
O       3.04596325     3.03301193     1.84125841     0.00131923     0.00076902     1.41475904
