# total energy = -19924.93282448 eV

CRYSTAL
PRIMVEC
        7.30169290     0.00000000     0.00000000
        0.00002444     3.74169334     0.00000000
        0.00000000     0.00000000    11.03169769
PRIMCOORD
24 1
Ti      2.64652709     2.21732408     4.09268116    -0.09319738     0.41198447     1.37877901
Ti      4.65519042     1.52436943     6.93901664     0.09319738    -0.41198447    -1.37877901
Ti      6.29724855     1.52437076     1.42312367    -0.09240008    -0.41165768    -1.37830695
Ti      1.00446901     2.21732292     9.60857430     0.09240008     0.41165768     1.37830695
Ti      2.64651492     0.34647746     1.42316790    -0.09319738     0.41198447    -1.37877901
Ti      4.65520264     3.39521616     9.60853006     0.09319738    -0.41198447     1.37877901
Ti      1.00445679     0.34647603     6.93897240     0.09240008     0.41165768    -1.37830695
Ti      6.29726072     3.39521759     4.09272540    -0.09240008    -0.41165768     1.37830695
O       2.31104060     1.31751389     5.62939090     2.89667043     0.05099194    -0.00835995
O       4.99067697     2.42417962     5.40230690    -2.89667043    -0.05099194     0.00835995
O       1.33986595     1.31752895     0.11357750    -2.89609065     0.05035559    -0.00743203
O       5.96185167     2.42416456    10.91811997     2.89609065    -0.05035559     0.00743203
O       4.99066474     0.55333295     0.11354172    -2.89667043    -0.05099194    -0.00835995
O       2.31105276     3.18836056    10.91815580     2.89667043     0.05099194     0.00835995
O       5.96183951     0.55331789     5.62942668     2.89609065    -0.05035559    -0.00743203
O       1.33987795     3.18837567     5.40227112    -2.89609065     0.05035559     0.00743203
O       0.26530236     2.27591003     2.97993675    -0.73170435     0.23423427     0.61198577
O       7.03641515     1.46578353     8.05176105     0.73170435    -0.23423427    -0.61198577
O       3.91615795     1.46574860     2.53594721    -0.73146215    -0.23393114    -0.61225342
O       3.38555956     2.27594496     8.49575043     0.73146215     0.23393114     0.61225342
O       0.26529020     0.40506330     2.53591198    -0.73170435     0.23423427    -0.61198577
O       7.03642737     3.33663020     8.49578566     0.73170435    -0.23423427     0.61198577
O       3.38554739     0.40509823     8.05179622     0.73146215     0.23393114    -0.61225342
O       3.91617017     3.33659528     2.97990153    -0.73146215    -0.23393114     0.61225342
