# total energy = -19948.28945775 eV

CRYSTAL
PRIMVEC
        4.76318089     0.00000000     0.00000000
        0.25334103     5.06313067     0.00000000
        0.00000000     0.00000000     8.52771215
PRIMCOORD
24 1
Ti      1.87655357     3.00040642     3.16372038     0.59413331     0.67109186    -0.68755489
Ti      3.13996815     2.06272406     5.36399186    -0.59413331    -0.67109186     0.68755489
Ti      4.21114719     2.06272579     1.10010166    -0.78796088    -0.94715876     1.32968326
Ti      0.80537459     3.00040489     7.42761068     0.78796088     0.94715876    -1.32968326
Ti      1.74988316     0.46884128     1.10013584     0.59430712     0.66881000     0.68502261
Ti      3.26663857     4.59428935     7.42757651    -0.59430712    -0.66881000    -0.68502261
Ti      0.67870417     0.46883940     5.36395764     0.78796448     0.94570043     1.33143033
Ti      4.33781761     4.59429122     3.16375461    -0.78796448    -0.94570043    -1.33143033
O       1.59678243     1.78281430     4.35162624    -1.88310416    -1.57184604    -0.31947717
O       3.41973929     3.28031618     4.17608601     1.88310416     1.57184604     0.31947717
O       0.96324814     1.78283474     0.08779757     1.84349065    -1.65549460    -0.17735733
O       4.05327363     3.28029579     8.43991443    -1.84349065     1.65549460     0.17735733
O       3.29306887     0.74875089     0.08776992     1.88284474     1.57172237    -0.31961267
O       1.72345285     4.31437959     8.43994208    -1.88284474    -1.57172237     0.31961267
O       3.92660322     0.74873050     4.35165394    -1.84427484     1.65582962    -0.17762833
O       1.08991846     4.31440008     4.17605831     1.84427484    -1.65582962     0.17762833
O       0.32715375     3.07968298     2.30354784    -0.85430205    -0.05414668    -0.92604177
O       4.68936803     1.98344750     6.22416446     0.85430205     0.05414668     0.92604177
O       2.65389948     1.98340033     1.96033540    -0.41032739    -0.86643663    -0.06843893
O       2.36262229     3.07973015     6.56737670     0.41032739     0.86643663     0.06843893
O       0.20048333     0.54811769     1.96030819    -0.85457227    -0.05403432     0.92457290
O       4.81603844     4.51501279     6.56740391     0.85457227     0.05403432    -0.92457290
O       2.23595187     0.54816486     6.22419162     0.41022403     0.86633662    -0.06719581
O       2.78056990     4.51496562     2.30352058    -0.41022403    -0.86633662     0.06719581
