# total energy = -19074.42252720 eV

CRYSTAL
PRIMVEC
        7.60600008     0.00000000     0.00000000
        0.00000000     7.60600008     0.00000000
       -1.89786986    -1.89786986     4.85670466
PRIMCOORD
22 1
Ti      3.79155198     6.62629699     1.32643501     1.01758053     0.40808924    -1.96978328
Ti      3.77191400     2.80927798     1.29373699     1.94197216    -0.90410845     1.12663571
Ti      0.26484999     6.80996002     1.11244700    -2.00089159    -0.85249611    -0.49978047
Ti      0.17901299     2.86767798     0.95332700    -2.06692911     0.71912368     0.55547162
Ti      5.79657923     2.93009423     3.43326279     0.35540192    -0.12217013     0.38520976
Ti      5.92436421    -0.96673677     3.53010482     0.14766699     0.69797455    -0.90559352
Ti      1.85387121     2.71247421     3.79843483    -0.02621472     1.29311547    -0.81649448
Ti      1.07068825    -0.93752079     4.07564481     2.54788062    -1.19489338    -1.96667225
O       3.73657898     4.59200602     0.93205000    -0.23085250     2.56898373    -0.52782376
O       4.11003001     0.85122500     0.77671298    -1.67904566    -0.46530248     1.50578384
O       0.26246001     4.88008599     0.51040500     0.11625402    -1.06382801     0.72919547
O      -0.18367499     1.05079901     0.77170400     0.95659420    -1.21380900    -0.75332194
O       5.82480825     4.84296621     3.96849081    -0.12231796    -0.10589041    -0.97114253
O       5.81185520     0.94366824     3.83469681     0.06479260     0.41405601     0.12496132
O       1.77877625     4.69095825     4.18462680    -0.97491640    -0.05972315     0.65691196
O       1.71734623     0.85665325     4.21982079    -0.69784394     0.11292958    -1.49603241
O       3.74442123     2.90942520     3.27579281     0.17291112    -0.44479330    -0.31068142
O       0.04231820     2.87814823     3.03481084     0.22654590     0.21312653     0.36906991
O       5.83827999     6.62506099     1.53751900    -0.51416117    -0.43664393     1.71565227
O       5.75071798     2.85134397     1.28690600    -0.55966355     0.79482161     2.10772508
O       1.87134702     6.76635798     2.07522097     0.43418775    -0.14178842     0.69266239
O       1.89115000     2.56758098     1.54227900     0.89104801    -0.21677364     0.24804676
