# total energy = -19516.50659968 eV

CRYSTAL
PRIMVEC
        5.17600016     0.00000000     0.00000000
        0.00000000     5.50899976     0.00000000
        0.00000000     0.00000000     9.26300011
PRIMCOORD
23 1
Ti      1.92417902     3.16973902     3.39233098    -0.14379337     0.56411927     2.71080274
Ti      3.42389100     2.27437302     5.84271402    -0.20017614     0.75260460    -2.74120656
Ti      4.31567998     2.23266200     1.50339500     0.15305551     0.07731413    -2.46341959
Ti      0.69521302     3.41596298     7.89156302    -0.02258946     2.99634108     1.18354299
Ti      2.09257598     0.16489502     1.56783498    -0.53273097    -1.05568018    -3.36289851
Ti      3.15936101     5.10200700     7.93385698    -0.56630702     0.21151239     2.11785548
Ti      0.68912499     0.60187102     5.95537702     0.31745345    -0.91760752    -3.30649286
Ti      4.56525500     4.90087599     3.20688499     0.62489991     0.17116406     2.65649537
O       1.78557099     1.88457101     4.64568401    -0.03444225    -0.64311413     1.47819718
O       3.63373301     3.68205002     4.53032703    -0.76658215    -0.64147556    -0.67876223
O       4.54958299     3.21671203     9.08518999    -0.47588438    -1.05222230     1.21168244
O       3.46276098     0.63676401     0.26038399    -0.31190064     0.93380522     0.26029292
O       1.60950599     4.61565098     0.03486902     0.30001263    -0.69532605    -2.17423980
O       4.43118498     0.80163501     4.70230402    -0.46946381     0.57482869     0.23346705
O       0.86699400     4.54757402     4.40404401     1.36637934     0.39373169    -0.20322264
O       0.36380603     3.38893800     2.32548800    -0.13670278    -0.14570678    -0.15494990
O       5.15410497     2.11695401     6.75740102    -0.42658011     0.71363309    -0.01270511
O       2.79732498     1.67679601     2.41933700     0.20819053     0.01254750     0.21352428
O       2.56300101     3.53124202     6.98171100    -0.73566462     0.11653144     0.88716076
O       0.25898400     0.72357602     1.83797499     0.07465304    -0.24025425     1.07357506
O       4.92619299     5.12846702     7.30444001     1.02273894    -1.45814616    -0.34989719
O       2.47034001     0.94073999     6.86366299    -0.56623786    -1.23004243     0.53107827
O       2.99771101     4.12246302     2.06835199     1.32167196     0.56144224     0.89012010
