# total energy = -19930.40078432 eV

CRYSTAL
PRIMVEC
        4.58054097     0.00000000     0.00000000
        0.00002511     4.87508076     0.00000000
        0.00000000     0.00000000     8.19816113
PRIMCOORD
24 1
Ti      1.66024067     2.88896835     3.04145937    -0.12121625     1.35001169    -1.78193096
Ti      2.92032540     1.98611246     5.15670200     0.12121625    -1.35001169     1.78193096
Ti      3.95043096     1.98611414     1.05758856    -0.11656229    -1.34924191     1.78523020
Ti      0.63013511     2.88896686     7.14057290     0.11656229     1.34924191    -1.78523020
Ti      1.66022821     0.45142806     1.05762143    -0.12147876     1.34867652     1.78432697
Ti      2.92033786     4.42365289     7.14054002     0.12147876    -1.34867652    -1.78432697
Ti      0.63012265     0.45142625     5.15666912     0.11634298     1.34864310     1.78260768
Ti      3.95044342     4.42365471     3.04149224    -0.11634298    -1.34864310    -1.78260768
O       1.44977898     1.71659886     4.18345896    -3.16157360    -2.71875877    -0.45472907
O       3.13078710     3.15848200     4.01470241     3.16157360     2.71875877     0.45472907
O       0.84053597     1.71661849     0.08440467     3.16161037    -2.71963757    -0.45387341
O       3.74003015     3.15846237     8.11375646    -3.16161037     2.71963757     0.45387341
O       3.13077464     0.72094157     0.08437807     3.16231742     2.71896214    -0.45527440
O       1.44979143     4.15413924     8.11378306    -3.16231742    -2.71896214     0.45527440
O       3.74001769     0.72092194     4.18348556    -3.16092903     2.71940129    -0.45365435
O       0.84054833     4.15415892     4.01467580     3.16092903    -2.71940129     0.45365435
O       0.16643690     2.96530049     2.21452790    -1.13771846     0.67129034    -0.77294923
O       4.41412917     1.90978033     5.98363347     1.13771846    -0.67129034     0.77294923
O       2.45671106     1.90973489     1.88457885    -1.13735336    -0.67201874     0.77542366
O       2.12385502     2.96534592     6.31358238     1.13735336     0.67201874    -0.77542366
O       0.16642444     0.52776006     1.88455267    -1.13702683     0.67130140     0.77484979
O       4.41414163     4.34732076     6.31360856     1.13702683    -0.67130140    -0.77484979
O       2.12384256     0.52780549     5.98365960     1.13791900     0.67169452     0.77344134
O       2.45672351     4.34727532     2.21450172    -1.13791900    -0.67169452    -0.77344134
