# total energy = -19919.47016461 eV

CRYSTAL
PRIMVEC
        7.75586519     0.00000000     0.00000000
        0.00002596     3.97443025     0.00000000
        0.00000000     0.00000000    11.71787984
PRIMCOORD
24 1
Ti      2.81114361     2.35524376     4.34724985     0.13596898    -0.03487780     2.31669722
Ti      4.94474772     1.61918667     7.37063011    -0.13596898     0.03487780    -2.31669722
Ti      6.68894344     1.61918808     1.51164332     0.13640247     0.03493822    -2.31699418
Ti      1.06694794     2.35524253    10.20623682    -0.13640247    -0.03493822     2.31699418
Ti      2.81113069     0.36802869     1.51169031     0.13596898    -0.03487780    -2.31669722
Ti      4.94476070     3.60640185    10.20618983    -0.13596898     0.03487780     2.31669722
Ti      1.06693496     0.36802717     7.37058312    -0.13640247    -0.03493822    -2.31699418
Ti      6.68895636     3.60640338     4.34729684     0.13640247     0.03493822     2.31699418
O       2.45478954     1.39946451     5.97954440     1.96460688     0.74201833    -1.33989157
O       5.30110185     2.57496591     5.73833556    -1.96460688    -0.74201833     1.33989157
O       1.42320689     1.39948051     0.12064213    -1.96470124     0.74217954    -1.34143475
O       6.33268455     2.57494992    11.59723748     1.96470124    -0.74217954     1.34143475
O       5.30108887     0.58775079     0.12060413    -1.96460688    -0.74201833    -1.33989157
O       2.45480246     3.38667964    11.59727554     1.96460688     0.74201833     1.33989157
O       6.33267163     0.58773480     5.97958240     1.96470124    -0.74217954    -1.34143475
O       1.42321964     3.38669569     5.73829756    -1.96470124     0.74217954     1.34143475
O       0.28180442     2.41747381     3.16529167    -1.68225697     0.53342671     0.37256764
O       7.47408690     1.55695667     8.55258829     1.68225697    -0.53342671    -0.37256764
O       4.15974672     1.55691957     2.69368555    -1.68119022    -0.53340537    -0.37259310
O       3.59614460     2.41751092     9.02419424     1.68119022     0.53340537     0.37259310
O       0.28179150     0.43025863     2.69364813    -1.68225697     0.53342671    -0.37256764
O       7.47409988     3.54417180     9.02423165     1.68225697    -0.53342671     0.37256764
O       3.59613168     0.43029573     8.55262565     1.68119022     0.53340537    -0.37259310
O       4.15975970     3.54413470     3.16525426    -1.68119022    -0.53340537     0.37259310
