# total energy = -4989.87876698 eV

CRYSTAL
PRIMVEC
        4.13307110     0.00000000     0.00000000
       -0.00000835     3.73944570     0.00000000
       -2.06656471    -1.86976038     5.03613165
PRIMCOORD
6 1
Ti     -0.00018067     2.80472478     1.25903266    -0.00104901    -0.00074511     1.94373183
Ti      2.06667838    -0.93503936     3.77709838     0.00104901     0.00074511    -1.94373183
O       0.00004199     0.93485438     0.82034461    -0.00009487     0.00025300    -0.42585275
O       2.06645556     0.93483093     4.21578655     0.00009487    -0.00025300     0.42585275
O      -0.00002119    -0.93484131     3.33841032    -0.00158226    -0.00023268    -0.77118982
O       2.06651874     2.80452657     1.69772083     0.00158226     0.00023268     0.77118982
