# total energy = -19517.53686695 eV

CRYSTAL
PRIMVEC
        5.93400000     0.00000000     0.00000000
        0.00000000     9.29699974     0.00000000
        0.00000000     0.00000000     4.64899994
PRIMCOORD
23 1
Ti      4.49264299     6.97584301     2.26113100     2.53117898     0.78946857    -0.39326760
Ti      4.40883999     2.25926602     2.42758698     1.11606205     0.34072812    -0.45809439
Ti      1.54264000     7.04182802     2.18592898    -2.27021191     1.12874787     0.11383975
Ti      1.42645797     2.31495901     2.27887600    -0.67499428    -0.07653200    -0.35313627
Ti      2.91812302     4.39267299     0.15477302     0.81859636     1.06008885     0.10313547
Ti      2.95571101     0.01011300     4.53288099    -0.33680513    -1.42213374     0.31337800
Ti      0.02387801     4.66268098     4.63984502    -0.57825700     0.62113582     0.21737451
Ti      5.88617799     0.17225497     4.64175800     0.37869330    -1.85848996     0.82688457
O       4.45150200     5.61737002     0.93035700    -0.40067084    -0.42725194    -0.60713615
O       4.46839699     0.95844203     1.02205601    -0.28539667    -0.32382774    -0.92529023
O       1.56233799     5.48315898     0.97957303    -0.57001892     0.25735698    -0.77192233
O       1.55235300     0.89461198     0.92021400     0.03409078     0.69802366     0.19670335
O       4.57589898     8.45392900     3.78497801    -1.11827525    -0.56004895    -0.64925958
O       4.32350302     3.61593901     3.83001602     0.89318151     1.04827694     0.09271324
O       1.36931302     8.33784799     3.53940003     1.63124138     1.26188453     2.09169476
O       1.48952400     3.73468501     3.76068798    -0.00769609    -0.10200496    -0.10757500
O       2.96602901     1.31126402     3.21914598    -0.80051532     0.51502635    -0.03750650
O       0.10486901     6.11017502     3.12553701    -0.86169012    -1.32558980     1.27688615
O       0.05443001     1.50302098     3.34173698    -0.09969276     0.38253093    -0.63919037
O       3.04916101     7.92638701     1.42642802     0.13611322    -0.43030076    -0.17583370
O       2.97259102     3.28491800     1.54095801    -0.20222454    -0.89330313     0.51429693
O       0.06433599     7.92770000     1.38132699    -0.46559687    -0.22932423    -0.30735827
O       5.79777898     3.33547702     1.49907803     1.13288787    -0.45446168    -0.32133608
