# total energy = -19073.14307008 eV

CRYSTAL
PRIMVEC
        7.60600008     0.00000000     0.00000000
        0.00000000     7.60600008     0.00000000
       -1.89786986    -1.89786986     4.85670466
PRIMCOORD
22 1
Ti      3.87167598     6.61704797     1.16829901     1.20143042    -0.08679045     0.90222152
Ti      3.82187299     2.67293499     1.28400198    -0.08238203     1.52425002    -0.25481416
Ti      0.38248598     6.78932999     0.92030401    -1.18380164    -0.28829251     2.02551325
Ti     -0.02180898     2.91521302     1.10718100     0.23934357     0.33038739     0.19555252
Ti      5.75515820     2.84460723     3.64876980    -0.95158620     0.38340587    -0.66708916
Ti      6.08562124    -0.83557178     3.66360682    -1.03477350    -0.72957445    -3.66569230
Ti      1.78251325     2.81043524     3.75990580     2.08563338    -1.87646506    -1.34237474
Ti      1.09500225    -1.14184179     4.00225681     2.60201701     2.28119798    -2.83503618
O       3.93465601     4.86139301     0.77188000    -0.47155669    -1.18685688     0.53009379
O       4.09083997     0.87732402     0.63440298    -0.61492506     0.29545406     2.24996216
O       0.15697398     4.75801998     0.76999301     0.04453229     0.03182384     0.14323904
O       7.38583398     1.00308400     0.50293397    -0.06231585     1.18028771     2.90393843
O       5.58645120     4.70075020     4.05134980     0.59270969     1.38140565    -2.16804189
O       5.49005622     1.05889924     3.81871084     0.70206415    -2.03677160     1.10069944
O       1.70922722     4.76186123     4.09205883    -0.62395837    -0.49277859    -0.26008466
O       1.97232024     0.93292520     4.13989582    -1.49150907     0.11464116     0.05456680
O       3.62509621     2.82167020     3.23281484     0.53904920     0.20916832     0.03816984
O       0.01088623     2.70848421     3.00298183     0.36068374     0.02923937     1.27346298
O       5.86394699     6.63110800     1.64247802    -1.10239894     0.18162999     1.64283320
O       5.64387598     3.04920298     1.79188598     0.38416152    -0.08797830    -1.92939021
O       1.99001100     6.66361499     1.95285101     0.20560785     0.02466640     0.29237362
O       1.98413798     3.01459198     1.45424798    -1.33802546    -1.18204995    -0.23010405
