# total energy = -19518.09557950 eV

CRYSTAL
PRIMVEC
        5.93400000     0.00000000     0.00000000
        0.00000000     9.29699974     0.00000000
        0.00000000     0.00000000     4.64899994
PRIMCOORD
23 1
Ti      4.45797998     7.00911201     2.28070600    -0.03033646     0.83638454    -0.25846204
Ti      4.50466801     2.40868599     2.32618302    -0.34208669    -1.73218138     0.61700148
Ti      1.36334703     6.99546501     2.25625399     0.27379919     0.65162011    -0.32096275
Ti      1.50603702     2.31106998     2.34718802     0.60246960    -0.99834250     0.57144280
Ti      2.97847299     4.63113201     0.22741900     0.32012714    -0.44400037     0.14182802
Ti      2.93192698     9.23910902     4.56576603     0.61877683     0.73427314     0.17027034
Ti      0.00241098     4.55665698     4.62587702    -0.00673218    -0.14613333    -0.60158257
Ti      5.92052599     0.07773402     4.61924500    -0.71756302     0.65516258     0.46163403
O       4.50043698     5.58534702     0.93026201    -0.64869574    -0.36706111    -0.42787106
O       4.42341100     0.97913100     0.92714400     0.81933606    -0.68446622    -0.37982973
O       1.41054397     5.48681099     0.86393102     0.65035333     0.93191957     0.30940256
O       1.55180303     0.92327201     0.87149101    -0.50824172    -0.33809479     0.23396456
O       4.49108499     8.42151202     3.72490602     0.00800385    -0.66725088    -0.44246465
O       4.40499901     3.69934501     3.83809301    -0.14176322     0.46267096    -0.35381067
O       1.57631700     8.43631999     3.50405099    -0.64666200    -0.40858470     1.06044675
O       1.43695701     3.54840699     3.82329701     0.50750690     1.48913465     0.25566391
O       2.98734798     1.37863601     3.26309002    -0.05227517     0.53507556    -0.62514340
O       0.00847901     6.12256798     3.19211200     0.02909333    -1.03021828     0.68703759
O       0.04130398     1.43588902     3.28260602    -0.18037401    -0.10105416    -0.51608873
O       2.98580998     7.71662099     1.31661999    -0.16402564     0.08497371     0.38993905
O       3.05334998     3.29718200     1.51912898    -0.99466222     0.18987270    -0.15366795
O       5.89588601     7.86184400     1.36578801     0.30034404     0.32279081    -0.51042176
O       0.00169199     3.29583101     1.50242502     0.30360806     0.02350940    -0.30832552
