# total energy = -19073.35459147 eV

CRYSTAL
PRIMVEC
        5.17600016     0.00000000     0.00000000
        0.00000000     5.50899976     0.00000000
        0.00000000     0.00000000     9.26300011
PRIMCOORD
22 1
Ti      1.93499398     3.28493297     3.22535799    -1.38393638     2.56167562     1.91129709
Ti      3.51766402     2.30537900     5.92715298     0.24766623     0.59876413    -1.47728855
Ti      4.32980700     2.24575702     1.37394502     0.73421889     1.71748418    -2.32885623
Ti      0.77943798     3.12848902     8.03787301    -0.51429539     1.33227365     0.76528914
Ti      1.77315702     0.46140398     1.35025100    -0.05291667    -0.71972866    -3.10526179
Ti      3.26912100     4.95087001     7.99570299     1.11438826    -0.13023311     2.85026457
Ti      1.15266299     0.28239099     6.00365698    -1.05385932     0.09275644    -0.19357920
Ti      4.29506397     5.18219201     3.45697702    -0.16012862    -1.52372757     2.37016102
O       3.54191902     3.48713901     4.26448600    -0.39208952    -1.08986172     2.10808066
O       0.73560300     2.02449801     0.24408200     0.72991460    -1.65232623    -0.00773414
O       4.26083499     3.58219999     9.02312898    -0.10793444     0.01494146    -0.51945688
O       3.27673401     0.69641203     0.23611799     0.83628272     1.53926218     0.42329733
O       1.66506802     4.63421299     8.95336400    -1.47574923    -0.72076816     0.31906708
O       3.47154998     0.76670200     4.70938701     1.49455711    -0.00361806    -0.82032722
O       1.05740399     5.03497702     4.39494697    -1.45226579    -0.40302803    -0.21900408
O       0.12697899     3.52871102     2.47529601     0.32481761    -0.70964196    -0.20995842
O       0.15428200     1.99281199     6.46795302     0.17504257    -0.68213989    -0.09572066
O       2.52887902     1.94876698     2.25397202     0.90963890    -1.01186522    -0.47202155
O       2.51302699     3.77779602     6.79355801    -1.67019360    -1.31637805    -0.89695281
O       5.05545602     0.72426098     2.14592202     1.27274693    -0.07143401     0.14722271
O       2.58433600     0.90992399     6.98018300     0.78440838     1.52776935     0.41267558
O       2.76449800     4.68545401     2.35551500    -0.36031273     0.64982343    -0.96119390
