# total energy = -19900.14499723 eV

CRYSTAL
PRIMVEC
        6.77819266     0.00000000     0.00000000
        2.44992162     6.78530488     0.00000000
        0.00000000     0.00000000    12.32738847
PRIMCOORD
24 1
Ti      3.90859021     4.02096528     4.57337322    -0.38174134    -1.87235489     0.49290200
Ti      5.31952431     2.76433942     7.75401538     0.38174134     1.87235489    -0.49290200
Ti      6.84385475     2.76434172     1.59027186     0.19825964    -0.87965108    -0.03576046
Ti      2.38425982     4.02096318    10.73711687    -0.19825964     0.87965108     0.03576046
Ti      2.68362957     0.62831302     1.59032129    -0.38174134    -1.87235489    -0.49290200
Ti      6.54448498     6.15699181    10.73706745     0.38174134     1.87235489     0.49290200
Ti      1.15929904     0.62831052     7.75396596    -0.19825964     0.87965108    -0.03576046
Ti      8.06881553     6.15699438     4.57342264     0.19825964    -0.87965108     0.03576046
O       3.00799988     2.38922112     6.29057198     1.77367746     1.98344793    -0.68803286
O       6.22011464     4.39608358     6.03681662    -1.77367746    -1.98344793     0.68803286
O       2.10646417     2.38924849     0.12691741    -0.46471884    -0.40752077     1.32636216
O       7.12165044     4.39605627    12.20047085     0.46471884     0.40752077    -1.32636216
O       4.99515398     1.00343118     0.12687740    -1.77367746    -1.98344793    -0.68803286
O       4.23296055     5.78187351    12.20051086     1.77367746     1.98344793     0.68803286
O       5.89668976     1.00340380     6.29061198     0.46471884     0.40752077     1.32636216
O       3.33142470     5.78190091     6.03677662    -0.46471884    -0.40752077    -1.32636216
O       1.73644858     4.12720696     3.32993517     0.58060725     2.30944542     2.26328459
O       7.49166595     2.65809774     8.99745343    -0.58060725    -2.30944542    -2.26328459
O       4.59509490     2.65803453     2.83379831     0.53529282     1.98008236     1.38729296
O       4.63301963     4.12727016     9.49359008    -0.53529282    -1.98008236    -1.38729296
O       0.51148791     0.73455456     2.83375893     0.58060725     2.30944542    -2.26328459
O       8.71662662     6.05075014     9.49362947    -0.58060725    -2.30944542     2.26328459
O       3.40805896     0.73461777     8.99749268    -0.53529282    -1.98008236     1.38729296
O       5.82005557     6.05068693     3.32989585     0.53529282     1.98008236    -1.38729296
