# total energy = -19515.91690043 eV

CRYSTAL
PRIMVEC
        5.17600016     0.00000000     0.00000000
        0.00000000     5.50899976     0.00000000
        0.00000000     0.00000000     9.26300011
PRIMCOORD
23 1
Ti      1.92218302     3.22425000     3.39623101    -0.00484113    -0.66552362     2.00749547
Ti      3.41748298     2.23847602     5.85148402    -0.35007999     0.73767934    -2.33289492
Ti      4.19669998     2.26876200     1.58398700     0.81561876    -1.89373825    -1.42364195
Ti      0.77186699     3.43838898     7.75675702    -0.79278710     0.04495036     1.23255826
Ti      1.89682998     5.46493300     1.43387201    -0.62107925     2.57739869    -1.31969632
Ti      3.26669599     5.16585700     7.93494598     0.08744299    -0.44133799     1.65562676
Ti      0.84602102     0.67370598     5.94662099    -0.74843735    -2.83386273    -3.98552222
Ti      4.53490901     4.91119902     3.38579998     2.76187078     1.93087245     3.40130258
O       1.85310099     1.85910102     4.85454202    -0.11676978     0.47647084    -1.35765147
O       3.65331300     3.56244400     4.46492199    -0.23230543    -1.29904650     0.63251501
O       4.77263798     2.84634902     9.17365202     0.41212228     0.60447223    -0.87266308
O       3.36232398     0.58822200     0.32915502     0.74489386     0.22750492    -0.30518363
O       1.71975801     4.66615402     8.89282898    -1.45224162    -1.10040685     1.95626776
O       4.38676103     0.61382598     4.78501601    -1.23738422     1.46097875     0.47118645
O       1.07985201     4.77377999     4.35579802     0.93488868    -1.07149273     0.04255537
O       0.24350800     3.48282002     2.36259602     1.52347252     0.75397294     0.10703764
O       0.03499301     2.19481599     6.44613600    -0.45469385     1.47932666     2.07307533
O       2.41641499     1.72080800     2.23418302     1.33554846     1.17380262    -0.04560316
O       2.59403302     3.54274300     6.93642899    -0.53130452    -0.06515898     0.76160346
O       0.20904697     0.92383701     2.17017702    -1.11481223    -1.72033990    -0.61888224
O       4.91703002     4.85207002     7.09231598     1.06809116     0.15395926     0.24769580
O       2.37346199     0.89418303     7.02348002     0.61751056     0.88716796     0.05034685
O       3.11623899     4.45053202     2.37568702    -2.64472305    -1.41764922    -2.37752697
