# total energy = -19076.46898800 eV

CRYSTAL
PRIMVEC
        7.60600008     0.00000000     0.00000000
        0.00000000     7.60600008     0.00000000
       -1.89786986    -1.89786986     4.85670466
PRIMCOORD
22 1
Ti      3.78760299     6.55365402     1.21112199    -0.48062472    -0.50613933     0.22125791
Ti      3.77847500     2.78397601     1.22472502     0.01201760     0.80304709    -0.48095485
Ti     -0.02855499     6.61823000     1.22032301     0.67259055     0.66178909    -1.16959372
Ti     -0.03895798     2.92362202     1.17565600    -0.18557278    -0.54726440    -0.09322104
Ti      5.68832724     2.91873020     3.54975682     0.39468094     0.74863276     0.61169858
Ti      6.00515323    -0.85675178     3.68532880    -1.21808037    -0.94674018     0.35094723
Ti      1.87697424     2.75561925     3.56732079    -0.31521068     0.29311153     0.72965904
Ti      1.92545122    -1.04055578     3.77238883    -0.98702939     0.52946130    -1.52925930
O       3.55034299     4.70238398     0.72609998     0.76053543    -0.28251523    -0.18554193
O       3.76866300     0.88289202     0.95211402     0.26276427     0.71834412    -0.28673930
O       0.08745998     4.78055701     0.71790599    -0.37493460    -0.15565850    -0.29103690
O      -0.25558002     0.98811903     0.77056098     0.84552379     0.23728360     0.47936025
O       5.81728022     4.82958221     4.07225479    -0.22430158    -0.09534425    -0.48158091
O       5.53627922     0.94866521     4.00368279     0.75285708     0.73059775    -0.41199784
O       1.84650623     4.74739320     4.17637280     0.32959909    -0.55606606    -1.14272774
O       1.97341521     0.86931424     3.94175979    -0.00651055     0.42557712     0.61766997
O       3.79585721     2.95330024     3.15881681    -0.25560657    -0.15613467     0.44004344
O       0.00812721     3.01844921     3.15941980    -0.17110775    -0.86823075    -0.11493170
O       5.66752502     6.57980501     1.74862902     0.07085552    -0.17900515     0.85374463
O       5.67635498     3.20213002     1.58330802    -0.02719303    -0.95306253     0.19351235
O       1.80080399     6.53291900     1.72180000     0.70284602     0.54819179     1.50320631
O       1.90123300     2.85417999     1.56767803    -0.55809800    -0.44987483     0.18648630
