# total energy = -4989.17371086 eV

CRYSTAL
PRIMVEC
        3.90337988     0.00000000     0.00000000
        1.14523776     3.73159550     0.00000000
       -2.52434405    -1.86582379     5.03986521
PRIMCOORD
6 1
Ti      0.85880887     2.79883968     1.25996601     0.00021854    -0.00021854     0.00000000
Ti      1.66546448    -0.93306815     3.77989845    -0.00021854     0.00021854     0.00000000
O       0.28635027     0.93289370     0.82095272    -0.00046048    -0.00057361    -1.08254102
O       2.23792291     0.93287775     4.21891173     0.00046048     0.00057361     1.08254102
O      -0.28632020    -0.93287148     3.34088516    -0.00057361    -0.00046048    -1.08254102
O       2.81059336     2.79864282     1.69897935     0.00057361     0.00046048     1.08254102
