# total energy = -19517.31378248 eV

CRYSTAL
PRIMVEC
        5.93400000     0.00000000     0.00000000
        0.00000000     9.29699974     0.00000000
        0.00000000     0.00000000     4.64899994
PRIMCOORD
23 1
Ti      4.54341300     7.01896799     2.21675700     0.22955332     1.65523518     0.08861285
Ti      4.47272598     2.32664901     2.28073601    -0.29475318    -1.23138069     0.73883248
Ti      1.48754000     6.93728700     2.32619498    -0.75085265     0.65795711    -0.81031483
Ti      1.49395601     2.36112502     2.27016199     0.10009051    -1.15652351     0.84155374
Ti      2.86954503     4.62965698     0.16986701     2.02293675    -0.58264485    -0.38505627
Ti      2.95944801     0.03105403     0.07970600     1.92652600     0.18643359    -0.32425094
Ti      0.01308502     4.66305299     0.01907800    -1.99739411    -0.11203201    -0.60913596
Ti      0.09872601     9.19156700     4.41714300    -1.80398666     0.50284754     0.58266747
O       4.35121000     5.67514300     1.05425502    -0.31338185    -1.95189791    -1.57888161
O       4.50817403     0.89211400     0.92359602    -0.52728537     0.12512330     0.00416390
O       1.39535600     5.43668002     1.00704198    -0.05211757     1.39489315     0.77926386
O       1.47980402     0.92807000     0.81937001    -0.26082360     0.04266490     0.46657595
O       4.43044498     8.31704502     3.79674802     0.06175818     0.70544129    -0.46827314
O       4.30295099     3.75946902     3.95389499     0.70432003     0.22951244    -0.94249889
O       1.56803601     8.35042801     3.54689302     0.04988893     0.54726825     1.36917979
O       1.38557300     3.75424800     3.83225799     0.68608268     0.02368141    -0.51531791
O       2.93300999     1.37716501     3.16139300    -0.05185506     0.30600227     0.28967962
O       5.82057102     6.23778098     3.28207499     1.34301238    -2.01856124     1.29636509
O       5.92633302     1.46668301     3.29894601     0.09082862    -0.27965128    -0.60223692
O       2.96178300     7.77193398     1.35390798    -0.97617907     0.37257947     0.44039542
O       2.97113801     3.36232298     1.51018101    -0.40299692    -0.83262533     0.68088699
O       0.08832101     7.72469401     1.29492901     0.19776059     1.10905476    -0.31826618
O       5.89518602     3.34318798     1.60104699     0.01886856     0.30662216    -1.02394453
