# total energy = -19956.48031492 eV

CRYSTAL
PRIMVEC
        5.51389962     0.00000000     0.00000000
        0.29326978     5.86112409     0.00000000
        0.00000000     0.00000000     9.87175374
PRIMCOORD
24 1
Ti      2.17231473     3.47329656     3.66235023     0.13859511    -0.75201633     0.53818377
Ti      3.63485444     2.38782731     6.20940362    -0.13859511     0.75201633    -0.53818377
Ti      4.87486061     2.38782931     1.27348725    -0.11724775     0.21118612    -0.25199906
Ti      0.93230863     3.47329479     8.59826671     0.11724775    -0.21118612     0.25199906
Ti      2.02567996     0.54273474     1.27352681     0.13859511    -0.75201633    -0.53818377
Ti      3.78148921     5.31838930     8.59822715    -0.13859511     0.75201633     0.53818377
Ti      0.78567384     0.54273257     6.20936401     0.11724775    -0.21118612    -0.25199906
Ti      5.02149539     5.31839147     3.66238984    -0.11724775     0.21118612     0.25199906
O       1.84844923     2.06380134     5.03748037     0.90601287     0.91389947    -0.11512093
O       3.95871994     3.79732253     4.83427348    -0.90601287    -0.91389947     0.11512093
O       1.11506443     2.06382499     0.10163523    -0.70438303     0.53802565     0.20603749
O       4.69210480     3.79729893     9.77011834     0.70438303    -0.53802565    -0.20603749
O       3.81208516     0.86676054     0.10160322    -0.90601287    -0.91389947    -0.11512093
O       1.99508401     4.99436333     9.77015035     0.90601287     0.91389947     0.11512093
O       4.54547003     0.86673694     5.03751244     0.70438303    -0.53802565     0.20603749
O       1.26169909     4.99438704     4.83424141    -0.70438303     0.53802565    -0.20603749
O       0.37871602     3.56506779     2.66660701     0.20942929     0.03907564     0.30398344
O       5.42845320     2.29605608     7.20514690    -0.20942929    -0.03907564    -0.30398344
O       3.07217712     2.29600147     2.26930131     0.38193315     0.34670953    -0.10423873
O       2.73499211     3.56512240     7.60245237    -0.38193315    -0.34670953     0.10423873
O       0.23208125     0.63450580     2.26926980     0.20942929     0.03907564    -0.30398344
O       5.57508798     5.22661807     7.60248388    -0.20942929    -0.03907564     0.30398344
O       2.58835733     0.63456041     7.20517835    -0.38193315    -0.34670953    -0.10423873
O       3.21881190     5.22656346     2.66657545     0.38193315     0.34670953     0.10423873
