# total energy = -19961.20858520 eV

CRYSTAL
PRIMVEC
        7.60600008     0.00000000     0.00000000
        0.00000000     7.60600008     0.00000000
       -1.89786986    -1.89786986     4.85670466
PRIMCOORD
24 1
Ti      3.78539199     6.61325398     1.16408703    -0.63821103     0.26073413     0.74137016
Ti      3.73032802     2.84717501     1.17232298     0.03377711    -0.54928503     0.23596668
Ti      0.02601298     6.75379002     1.16305100     0.44098318    -1.37063221     1.46558848
Ti     -0.05232902     2.86977601     1.18251800     0.27363515     0.99018285     1.14162988
Ti      5.69153220     2.96321522     3.65397579     0.75174868    -1.22838253     0.16243310
Ti      5.67732522    -0.90333277     3.59195479     1.64312322     0.24224377     0.27048607
Ti      1.91268424     2.83424620     3.70906981    -0.57519301    -0.79003782    -2.07176124
Ti      1.91879121    -1.04973976     3.68168679    -1.14006845     0.55306378    -0.89126938
O       3.77326398     4.73447599     0.71618198     0.15151259    -0.38632742     1.36426075
O       3.72926898     0.89338000     0.74794399     0.38717074    -0.42011404     1.08228545
O       0.02380499     4.86839202     0.86696897    -0.43673263    -0.95254548    -0.54549368
O       0.09859498     0.99616501     0.75769398    -0.66777282    -0.63010357    -0.35691862
O       5.95300122     4.72944124     4.05075781    -0.51551563     1.85976137    -0.04678098
O       5.89917321     1.02003323     4.18221380    -1.00860866    -0.69831625    -1.87733075
O       1.64881624     4.66259123     4.07106880     0.59366640     0.89590740     0.05663371
O       1.91965821     0.88823920     4.09887580     0.28243939     0.11911797    -0.17550202
O       3.79543720     2.89956721     3.36967182    -0.14041108     0.03487857    -0.67756512
O       3.83567224    -1.23289377     3.16039883     0.01436347     0.53822568     0.88155164
O      -0.01714180     2.77014321     3.11047181     0.84008924     0.02125378     0.92957986
O       0.04584924    -0.92775879     3.20960983    -1.17225404     0.27105505    -0.01453754
O       5.68395999     6.67872797     1.62137999     0.08060103     0.39545355    -0.24723454
O       5.68867999     2.87736600     1.67497898    -0.86452502    -0.11437248    -0.59724615
O       1.86602303     6.51911198     1.75810600     1.30017907     0.63939657    -1.28437372
O       1.93796398     2.79104401     1.59593101     0.36600284     0.31884211     0.45422797
