# total energy = -19517.38498654 eV

CRYSTAL
PRIMVEC
        5.93400000     0.00000000     0.00000000
        0.00000000     9.29699974     0.00000000
        0.00000000     0.00000000     4.64899994
PRIMCOORD
23 1
Ti      4.63226403     7.26984500     2.17713199    -0.35881506    -2.53273707     0.90805201
Ti      4.41682501     2.19258497     2.37411600    -0.91443863    -0.12790677     0.42512178
Ti      1.50709300     6.98491702     2.21587301    -1.79703260     0.01284087     0.87390132
Ti      1.39579602     2.37227399     2.26283802     0.40520267    -0.51615249     0.48594536
Ti      3.02243502     4.42609599     0.05681400    -0.10166454    -0.18917336     0.96991663
Ti      2.99881498     9.11689898     0.00738499    -2.26271175     1.62990260    -0.52201024
Ti      0.01900201     4.73131299     0.07843100     0.18702031     0.83216356    -0.80409584
Ti      5.91806103     0.13085903     0.00674198     1.43082664     0.13231236    -0.17937488
O       4.28243701     5.78385501     0.91374200     0.34904744    -1.36951532    -0.67813360
O       4.42733500     0.86106399     1.03390598     0.23251549    -0.99440897    -1.82433592
O       1.61720600     5.61898100     0.90284201    -0.51918434    -0.25878986     0.00197127
O       1.49095701     0.81844802     0.91533498    -0.65568529     1.02188842     0.08476210
O       4.39453099     8.26835902     3.84331398     0.92442634    -0.13702339    -0.33519639
O       4.28187100     3.67203598     3.52758001     0.29757188     2.14948186     2.53935921
O       1.42607702     8.32565701     3.74031402     0.66463376    -0.13431551     0.58722013
O       1.43892100     3.73356902     3.80983601     0.01887730    -0.12874881    -0.66147901
O       2.96464098     1.37451298     3.27948102    -0.51533540    -0.25210190     0.11234311
O       5.89565503     6.02643197     3.25976001    -0.11314658     0.46232926    -0.50994173
O       0.00707198     1.31072098     3.13252199     0.01129332     0.09979612     0.85222871
O       2.96213199     7.98449300     1.62898300     0.30534535    -0.43226405    -0.22849094
O       2.89587202     3.13416699     1.40561998     0.29428395     0.55242820    -0.72178632
O       0.11192602     7.96364299     1.41611298     0.97430576     0.42344414    -0.68366713
O       5.77400501     3.32527999     1.48152601     1.14266397    -0.24344962    -0.69230964
