# total energy = -19958.41597268 eV

CRYSTAL
PRIMVEC
        7.60600008     0.00000000     0.00000000
        0.00000000     7.60600008     0.00000000
       -1.89786986    -1.89786986     4.85670466
PRIMCOORD
24 1
Ti      3.67616499     6.75020998     1.13484501     0.56036931    -0.74043890     4.82361192
Ti      3.89435397     2.96636800     1.19493298     0.71159009     1.20274605     0.42339708
Ti     -0.07391299     6.57124102     1.28082501    -1.26584429     1.01268026     0.20341496
Ti      0.09778201     2.68870600     1.26581400    -1.29482320    -0.41374722    -0.87420497
Ti      5.71529623     2.69685724     3.65578981     1.03067645     0.58716947    -0.06662014
Ti      5.65152921    -1.11741280     3.63796680     0.32433990    -0.18671152     0.15933878
Ti      1.95854522     2.92326922     3.57612879    -0.98885616    -1.88972167    -0.21378731
Ti      2.01054324    -0.89039380     3.70355779    -0.93716642     2.34633459    -1.57864456
O       4.15588602     4.82084899     0.87940898    -1.57788197    -0.20768453    -2.22788923
O       3.75535102     1.20789200     0.80892802     0.42969346    -2.34601192    -1.55620473
O       0.11917998     4.88327201     0.70628499    -0.58473747    -3.37022487     0.02101312
O       7.18338199     0.85071302     0.98863402     1.78311213     0.33071624    -1.00219067
O       5.53874921     4.65100722     3.93309679    -0.26260203     0.98359413     0.59827896
O       5.85263720     0.76211822     4.16206983    -0.13073190     2.02900635     0.23914431
O       1.86707820     4.95384721     4.29008182     0.43496397    -1.38882817    -4.56759140
O       1.59938924     1.12754024     3.63509184     1.31625541     0.02634970     1.71988533
O       3.89653323     2.71606124     3.01879582    -1.70099363     0.33686066     2.18057165
O       3.78458023    -0.63469175     3.22890279    -2.45494600    -0.33764073     0.81818215
O       0.00583122     3.08762521     3.16824383     1.75886610     0.08673928     0.93741685
O      -0.11019677    -1.02795676     3.17208481     1.08201703    -0.33948833     0.99377853
O       5.52824800     6.53240300     1.78425397     0.48968298     0.51688757    -1.37349179
O       5.82619702     2.81735402     1.72745600    -0.90152063     0.40446322    -1.41315210
O       1.78459302     6.53286101     1.59405799     2.53769982     0.64998720     0.63817452
O       1.98084697     2.90298702     1.50234501    -0.35916268     0.70696313     1.11756846
