# total energy = -19519.26493360 eV

CRYSTAL
PRIMVEC
        7.60600008     0.00000000     0.00000000
        0.00000000     7.60600008     0.00000000
       -1.89786986    -1.89786986     4.85670466
PRIMCOORD
23 1
Ti      3.81593298     6.65878000     1.18886702    -0.20426008     0.01504867     1.00431338
Ti      3.84035599     2.84815298     1.20569099    -0.02151423     0.12611523     0.99391043
Ti     -0.00305298     6.60886800     1.18993199    -0.27716014     0.27630190    -0.23538535
Ti      0.01129899     2.80638301     1.11454900    -0.36270360    -0.19502622     0.30519237
Ti      5.69818322     2.90829525     3.66021781    -0.96062080    -0.61735372     0.20526101
Ti      5.75668022    -0.96148278     3.61463480    -1.65391363     0.52562933    -0.13911190
Ti      2.02330525     2.88597423     3.69037684     0.10450535    -0.19755207     0.85201300
Ti      1.83065620    -0.88835477     3.63345080     1.40080926    -0.06463370    -0.17654821
O       3.71477699     4.76818701     0.82728100    -0.11310184    -0.71782502     0.51166489
O       3.70545902     0.98383999     0.74046100     0.25374766    -0.21395854     0.40349442
O      -0.12041502     4.74345798     0.69670598     0.58946007     0.31224080     1.01047966
O      -0.14496398     0.88695600     0.84020398     0.28771504     0.33506629    -0.72542931
O       5.72460822     4.79229622     3.91034984     0.26722976    -0.72146776     0.83480974
O       5.89061424     0.95624821     4.09772579     0.30990032    -0.16842737    -0.79506304
O       1.97084621     4.75045920     4.09165083    -0.37240206     0.42395013    -0.58947678
O       1.71093525     0.99538225     4.11735980    -0.06390351    -0.12878635    -0.07840942
O       3.80066722     2.67644724     3.26482080     0.77854832     0.34950278    -0.49419835
O       3.77647424    -0.73727176     3.24111683    -0.26303192    -0.31654791    -0.43854706
O      -0.01886178    -0.94945580     3.18452683     0.05488690    -0.11875030     0.04038947
O       5.66384703     6.51558099     1.59451001    -0.04619066     0.45186949     0.42075836
O       5.79871102     2.91228403     1.75515298    -0.32786334    -0.33255303    -1.46103943
O       1.80987197     6.53535301     1.59157699     0.87083939     0.35417088     0.20654888
O       1.75429900     2.67435900     1.88711000    -0.25097601     0.62298624    -1.65562701
