# total energy = -19076.65707957 eV

CRYSTAL
PRIMVEC
        7.60600008     0.00000000     0.00000000
        0.00000000     7.60600008     0.00000000
       -1.89786986    -1.89786986     4.85670466
PRIMCOORD
22 1
Ti      3.87613101     6.64382498     1.14553100    -0.09850671    -0.26953681     1.17065996
Ti      3.72207699     2.82384200     1.21671598     0.26851994     0.49356380    -0.02426171
Ti      0.08784702     6.74527900     1.09479100    -0.41741490    -1.29407887     0.33414043
Ti     -0.04912400     2.85107902     1.09978903    -0.27189040     0.77784101     0.75901102
Ti      5.69633422     2.81406222     3.60980383     0.42316311     0.56804329    -0.14522342
Ti     -1.45319577    -1.03294378     3.72547182    -0.46390920     0.24461587    -1.14974865
Ti      1.87391724     2.87286921     3.63478380    -0.67411959    -1.25590414    -0.00060061
Ti      1.58738120    -0.96843178     3.76455881    -0.12730488     0.68833008    -0.57066504
O       3.62205100     4.72826800     0.81949601     0.28182566     0.54099193    -0.08795850
O       3.65848999     0.94672001     0.91789800     0.39368309    -0.80107017    -0.07365339
O       0.11806902     4.76881102     0.74065601    -0.44182856     0.16060376    -0.42499528
O      -0.23311501     0.98354302     0.66458402     0.42493769    -1.14326124     1.22648248
O       5.49377221     4.73328825     3.94789883     0.78500591     0.71468570     0.32191740
O       5.73376224     0.86355721     4.02492481     0.28216351     0.91095427    -0.88040518
O       2.08989522     4.73925324     4.18439481    -0.14494985     1.08205045    -1.20437407
O       2.00939820     0.88630024     4.05544781    -0.70537393    -0.01868653     0.22090695
O       3.68666423     2.84672521     3.19706283     1.15095321    -0.18176549    -0.11063332
O      -0.01913177     2.99533723     3.24207380    -0.28529794    -0.37131011    -0.09528615
O       5.78524198     6.62016901     1.86549602    -0.61693283     0.13860514    -0.64470564
O       5.69253902     2.90934302     1.55842298    -0.69705461    -0.19922740     0.66928180
O       1.89127298     6.77924398     1.84567299     0.18307238    -0.59571968     0.16520552
O       1.78628898     2.81071798     1.58096699     0.75125940    -0.18972486     0.54490541
