# total energy = -19072.79417005 eV

CRYSTAL
PRIMVEC
        5.17600016     0.00000000     0.00000000
        0.00000000     5.50899976     0.00000000
        0.00000000     0.00000000     9.26300011
PRIMCOORD
22 1
Ti      1.76798098     3.28140902     3.30785699     0.31234441     3.25505663     0.64740556
Ti      3.83842200     2.14367698     5.92981400     0.87078488     1.69917535    -2.33030839
Ti      4.39802298     2.24106602     1.39867601    -0.68492851    -1.16303098    -2.45356712
Ti      0.74357500     3.20042099     8.16544400    -1.87229884     0.59761330     0.86232235
Ti      1.80037700     0.62997102     1.33466498     0.55729479    -1.79379429    -1.65330582
Ti      3.13585602     5.14671602     7.95991801     1.09834251     0.60751385     1.35759285
Ti      0.84178199     0.12572003     5.99023302    -0.91813819     0.52009271    -0.69630153
Ti      4.44966798     4.85221200     3.43551798    -0.60790954     0.23124408     0.25559346
O       3.43177500     3.37300299     4.23009799     0.70185537    -0.35787687     2.24105945
O       0.94747297     1.99049202     0.39265502    -1.18557365     1.10261569    -2.39870464
O       4.24533698     3.76847202     8.79992101    -0.04283999    -0.24517303    -0.09869080
O       3.36969902     0.93526401     0.12016901     0.53480380     0.61027856    -0.31761800
O       1.70566300     4.82403903     9.04114498    -1.65542004    -0.85882591     0.59925778
O       4.55563599     0.81769501     4.83077302    -0.21958078     0.78525685    -0.36748277
O       1.03539900     4.83379901     4.30344000     0.22214828    -1.22401294     0.08617364
O       0.16933497     3.55602000     2.21785700    -0.05469278     0.81536036     1.16252010
O       5.04108298     1.57287698     7.16779100     1.70305617     0.12049222     0.24826838
O       2.54112000     2.16432998     2.19155303     2.03341657    -2.00073012    -0.68347326
O       1.63323002     4.14505598     6.78429698     1.78017618    -1.35062593    -0.17706037
O       5.15032199     0.74088001     2.17562500     0.20992885    -0.56043848     0.87131222
O       2.60362700     1.00281200     6.29846702    -2.96343635    -1.21317111     1.91956473
O       2.71092399     4.72800600     2.29172400     0.18066660     0.42298057     0.92544193
