# total energy = -19961.50524806 eV

CRYSTAL
PRIMVEC
        7.60600008     0.00000000     0.00000000
        0.00000000     7.60600008     0.00000000
       -1.89786986    -1.89786986     4.85670466
PRIMCOORD
24 1
Ti      3.78715002     6.63128999     1.24585999    -0.63498713     0.09605928     0.68755618
Ti      3.80266301     2.88710000     1.22854399    -0.64381244     0.03026961    -0.97449705
Ti      0.01081199     6.60533998     1.17900601     0.54955679     0.10570863     0.72206682
Ti      0.02355701     2.87444103     1.15034397     0.56760414     0.01393358     0.35935731
Ti      5.75018023     2.79164421     3.54843081    -0.03874191     0.85508289     0.66599850
Ti      5.73979423    -0.98168180     3.67226781    -0.10042296    -0.91895863    -0.40930229
Ti      1.85911425     2.88611923     3.61124780     0.06380478    -0.43207585     0.25723485
Ti      1.87810822    -0.96132276     3.70267280     0.30109300     0.28472381    -0.14165781
O       3.62327197     4.75829002     0.78262500     0.70469027    -0.65796997     0.06315120
O       3.64133999     0.95393100     0.83173000     0.70189625     0.55343299     0.27138210
O       0.02819800     4.74793598     0.71395298    -0.28106847    -0.75798540     0.17724035
O       0.04578399     0.93790302     0.79533198    -0.36374053     0.05552608     0.06378344
O       5.85150323     4.64205222     4.12209879    -0.66009139     1.28522681    -0.57546221
O       5.71275322     0.88210022     4.00926079     0.11531376     0.98795370    -0.21505075
O       1.87186922     4.68805222     4.19828783     0.44176814     0.74826894    -0.96523337
O       1.78233523     0.93718725     3.97569381     0.65729762     0.70211865     0.65992761
O       3.78898224     2.94943825     3.09255683     0.63013571    -0.52511665     1.33774316
O       3.79374621    -1.06785376     3.25354879     0.33272324    -0.03475439     0.53808838
O       0.01257124     2.97822925     3.14268881    -0.28863189    -0.76763450     0.32274864
O       0.08862920    -1.11006178     3.29408584    -2.36223739     0.09156139    -0.41787538
O       5.65620698     6.65038302     1.71055900     1.13705922     0.01158360    -0.49352343
O       5.77074300     3.01455801     1.63038997    -0.98758294    -0.59344297    -0.75802320
O       1.84611400     6.72551201     1.72829602     0.40802600    -0.35147739    -0.72376581
O       1.88436399     3.06513899     1.65217901    -0.24965164    -0.78203423    -0.45188697
