# total energy = -19922.89168528 eV

CRYSTAL
PRIMVEC
        5.93400000     0.00000000     0.00000000
        0.00000000     9.29699974     0.00000000
        0.00000000     0.00000000     4.64899994
PRIMCOORD
24 1
Ti      4.27520898     5.36689403     2.25888400     2.85010542     7.53182556     1.79328136
Ti      4.61377600     2.59206998     2.28210398    -2.13445685    -1.69830528    -1.46971305
Ti      1.46770300     5.69453200     2.32942899    -5.64524269     2.51204277     0.57225630
Ti      1.41315001     2.41708398     2.11605901     3.97745333    -0.36385494    -1.28225873
Ti      2.81439798     4.56149498     0.26247499     0.53917365     4.93773835    -4.09093158
Ti      3.02904000     1.66197000     4.32431800    -0.98950613    -8.86702641     3.36457333
Ti      0.12483900     4.17386000     0.09991501    -1.66234222     2.85008434    -4.77732793
Ti      0.07198700     1.62729101     4.53737201     0.40811727    -9.52650510     0.18649555
O       4.42443199     5.55500299     0.29177500    -0.36353561    -4.38203147     0.45521733
O       4.50772698     1.05194701     1.14609600     0.78817788    -1.13820182    -3.17678657
O       1.27661498     5.61164999     0.46339401    -0.08675882    -3.46956514    -0.01997954
O       1.47944402     0.83283101     1.34384298    -1.09440692    -0.12733907    -5.14409079
O       4.33080699     0.58892200     3.91434603     3.39543532    -4.15279440    -0.02217063
O       4.54538900     2.73853503     4.26382500     0.06478977     7.89824929    -0.79858211
O       1.76634498     0.30497702     3.74044102    -1.23868443     0.54911585     1.95602762
O       1.57968400     2.68412201     4.03339498    -1.71210466     7.51316912     0.53734430
O       2.68485201     6.10633398     3.54852299     2.94686070    -1.63925834     0.04385892
O       3.08514898     1.32404101     2.38832801     0.05797891     3.91708432     2.20484776
O       0.03115499     5.90361703     3.78181602    -0.00553636    -0.02699479    -4.35818268
O       5.92796003     1.52249100     2.54461098     0.16952215    -1.05962631     4.18136400
O       2.86346499     6.35189101     1.42064300     2.69226200     1.02480739    -0.21872511
O       3.19313601     3.80865499     1.88646398    -2.50180283    -0.43723091     1.65472044
O       5.70724199     6.56715402     1.72820500    -0.20923388     1.21114405     2.83123480
O       0.03126898     4.22101599     1.82304701    -0.24626524    -3.05652677     5.57752675
