# total energy = -4986.32625813 eV

CRYSTAL
PRIMVEC
        3.20710121     0.00000000     0.00000000
        1.93271038     4.63850458     0.00000000
       -0.00001232    -0.00006676     5.13277454
PRIMCOORD
6 1
Ti      2.56989955     2.31921876     2.56638721     0.00000000     0.00000000     0.00000000
Ti      0.00000000     0.00000000     0.00000000     0.00000000     0.00000000     0.00000000
O       1.98020491     0.90396310     1.00030214    -0.38676528     0.51788927     0.12129724
O       3.15959419     3.73447441     4.13247223     0.38676528    -0.51788927    -0.12129724
O       0.58968936     1.41522871     3.56669047     0.38608934    -0.51793170     0.12164254
O       1.34300868     3.22320900     1.56608395    -0.38608934     0.51793170    -0.12164254
