# total energy = -19516.65690101 eV

CRYSTAL
PRIMVEC
        5.93400000     0.00000000     0.00000000
        0.00000000     9.29699974     0.00000000
        0.00000000     0.00000000     4.64899994
PRIMCOORD
23 1
Ti      4.48837999     7.06796800     2.29232499     0.77839020     0.38881291    -0.02388684
Ti      4.40099902     2.27592102     2.31080000     0.80001936     0.27556708    -0.01119073
Ti      1.40357201     7.10284401     2.14914899    -1.06634846    -0.59719987    -0.80986463
Ti      1.44421700     2.24928399     2.42013098    -0.95087375     0.91623661    -0.88733611
Ti      3.01612400     4.57299998     0.17729999     0.44271456    -1.14315763    -0.13775590
Ti      2.92162400     9.21951401     4.61668500     0.61378169     0.56816413     0.05017227
Ti      0.06289499     4.69491200     0.04609002    -0.27151888    -1.51886536    -0.41117200
Ti      0.01066700     0.03346702     4.58664000    -0.57673722     0.31826824     0.18968269
O       4.58265398     5.57322198     1.03016401    -1.16464486    -0.20221888    -0.90486487
O       4.36519801     0.93973201     0.76311302     0.22794663     0.19036635     1.00496438
O       1.54477698     5.49016603     1.00581598     0.21360142     0.70397499    -0.63266593
O       1.48586098     0.86109601     0.93353699     0.33576691    -0.60668595    -0.61789185
O       4.51798301     8.28586701     3.75618098    -1.26504467     0.41710122    -0.07775610
O       4.49301299     3.71446498     3.84752798    -0.17127282     0.58666528    -1.08717441
O       1.45269098     8.26118200     3.46504898     0.72575224     2.62499394     3.70939130
O       1.48905001     3.56626598     3.90494699     0.26273496     2.06700110    -0.74232352
O       2.79883901     1.48428001     3.36587402     2.42815150    -1.06575428    -0.74540628
O       5.93379399     6.26572900     3.11938299     0.38042031    -2.22982912     1.31611374
O       5.91308099     1.36433600     3.21018198    -0.51658650     0.15820004    -0.50830008
O       2.96772000     7.87243898     1.41716398     0.41778822     0.08957572    -1.01326699
O       3.02960903     3.21607098     1.33867001    -0.12399175    -0.66533258     1.63673043
O       5.86183901     8.11086503     1.37989101     0.08616593    -1.43239141     0.11867265
O       0.15011801     3.21907200     1.38899699    -1.60621451     0.15650696     0.58512905
