# total energy = -19517.02141562 eV

CRYSTAL
PRIMVEC
        5.17600016     0.00000000     0.00000000
        0.00000000     5.50899976     0.00000000
        0.00000000     0.00000000     9.26300011
PRIMCOORD
23 1
Ti      1.87984900     3.35084899     3.38422599    -0.66545600    -1.15212461     1.45094707
Ti      3.24644602     2.31705201     5.89206498     1.26990406     0.47977086    -3.37099466
Ti      4.33508300     2.05887601     1.53809998     1.31416433    -0.52906715    -0.24446289
Ti      0.94292300     3.25777200     7.83615800    -2.78523492     1.12644416     0.87590164
Ti      1.95758900     0.22403100     1.37135200    -0.40854382     0.42630706    -0.64576031
Ti      3.29117901     5.27083401     7.93518400     0.35624807    -0.22422393     0.27193925
Ti      0.71099800     0.61934302     5.86303601    -1.98874029    -0.37572650    -2.58090362
Ti      4.45944998     4.89147700     3.41788701     1.01842514     0.50260175     2.39183465
O       1.67899702     2.15744898     4.76710299    -0.80886061    -2.04556015     1.17836581
O       3.49225203     3.61136501     4.38419600     1.15255527     0.01883668     1.54344897
O       0.38611000     2.43755800     0.11553199    -0.00485913     0.08923557    -0.30374690
O       3.47443002     0.79521302     0.29171102     0.12860663     0.23336575    -1.56484441
O       1.69994101     4.80659999     8.96940902    -0.15703610    -0.34953852     0.16647128
O       4.19005198     0.79964101     4.78968500     0.75818338    -0.33477704    -0.70987336
O       0.98792598     4.69307300     4.42961697    -0.25920020     1.41802074     0.34936446
O       0.19894398     3.26410101     2.59254799    -0.88340386     0.06538986    -0.90849013
O       5.01755602     2.16068098     6.70301001    -0.25942980    -0.28796726     0.70421179
O       2.63724500     1.71019498     2.38069002     0.15205304     0.52856038    -0.24046765
O       2.46800099     3.67201100     6.97255798     2.05927648    -0.17053979     0.04697459
O       0.16830202     0.55933400     2.11988898     0.16227524     0.17782013    -0.50870786
O       5.03393898     4.75033300     6.99620501    -0.33381339     0.32088202     1.51025833
O       2.42819501     0.81920999     6.68947900    -0.04590372    -0.59280174     1.76600966
O       2.95785598     4.39486400     2.18693299     0.22879021     0.67509121    -1.17747595
