# total energy = -4987.74181604 eV

CRYSTAL
PRIMVEC
        2.97000358     0.00000000     0.00000000
        1.36534449     4.44874879     0.00000000
       -0.00000909    -0.00006099     4.70799481
PRIMCOORD
6 1
Ti      2.16766955     2.22434394     2.35399740     0.00000000     0.00000000     0.00000000
Ti      0.00000000     0.00000000     0.00000000     0.00000000     0.00000000     0.00000000
O       1.75108556     0.86698382     0.91751883    -2.30775492     1.12458526     1.14159568
O       2.58425359     3.58170406     3.79047593     2.30775492    -1.12458526    -1.14159568
O       0.41658026     1.35733544     3.27151728     2.30812387    -1.12356890     1.14072048
O       0.94875533     3.09135223     1.43647753    -2.30812387     1.12356890    -1.14072048
