# total energy = -4985.88636332 eV

CRYSTAL
PRIMVEC
        3.48779709     0.00000000     0.00000000
        0.85852691     3.38048223     0.00000000
       -2.17319376    -1.69026582     4.48694186
PRIMCOORD
6 1
Ti      0.64378193     2.53549113     1.12173539     0.00133543    -0.00130561    -0.00057516
Ti      1.52934848    -0.84527459     3.36520618    -0.00133543     0.00130561     0.00057516
O       0.21466830     0.84511574     0.73088611     0.00069805     0.00198026     0.83357175
O       1.95846195     0.84510072     3.75605546    -0.00069805    -0.00198026    -0.83357175
O      -0.21464338    -0.84509636     2.97435690     0.00194504     0.00063866     0.83318300
O       2.38777362     2.53531277     1.51258467    -0.00194504    -0.00063866    -0.83318300
