# total energy = -19075.16798626 eV

CRYSTAL
PRIMVEC
        5.17600016     0.00000000     0.00000000
        0.00000000     5.50899976     0.00000000
        0.00000000     0.00000000     9.26300011
PRIMCOORD
22 1
Ti      1.74451700     3.31120800     3.26051102     0.80350166     1.97256985     0.40483423
Ti      3.64295700     2.23362098     5.96360800    -1.14590331     0.08012949    -1.45727070
Ti      4.46241501     2.27988901     1.25228299    -1.08778916    -1.06687605    -1.47749269
Ti      0.76087698     3.25967503     8.14798898     0.78095256     0.95305096     0.46854644
Ti      1.82135999     0.68528300     1.25264002     0.92336396    -1.53072483    -0.57242599
Ti      3.19344299     4.90918201     8.03182902     0.48821205     0.80113702     1.25974949
Ti      0.71350699     0.24977399     5.92567599     0.19985552     0.44910993    -0.40255520
Ti      4.39038298     4.91188901     3.42499799    -1.09351089     0.52818963     0.36652015
O       3.42171000     3.40431801     4.38212400    -0.01045411    -0.17529788     1.32229468
O       0.95873101     2.00751301     0.28582202    -0.71733548     0.71196933    -1.40044544
O       4.37291299     3.78136997     9.06585999    -1.02015266    -0.15704844    -0.41080407
O       3.39783400     0.87714802     0.20276998     0.44288065     0.26180936    -1.24935605
O       1.62196701     4.76677300     9.07404001    -0.16617560     0.19994911    -0.22598514
O       4.52673201     0.89346202     4.72959200    -0.36338880     0.12303119     0.31664098
O       0.90195601     4.59219700     4.42958898    -0.22483020    -0.35638408     1.38108143
O       0.03455199     3.61311802     2.27983598     0.86282912    -0.14204270     0.99477484
O       0.01647202     2.07914800     6.91392303     0.39792284    -1.22094150    -0.73307989
O       2.69723100     2.23029600     2.16320701     0.40867828    -1.35115558    -0.21286402
O       2.52503799     3.31349299     7.16441903    -0.40120563     0.00894641    -0.42249000
O       5.12839400     0.74775502     2.10650001     0.87059308    -0.51095244     1.11127414
O       2.51483598     0.65607999     6.36420698    -0.30271820    -0.17013330     0.88150459
O       2.58292802     4.83387400     2.46926498     0.35467430     0.59166454     0.05754825
