# total energy = -19941.65562633 eV

CRYSTAL
PRIMVEC
        4.68552034     0.00000000     0.00000000
        0.24921047     4.98057963     0.00000000
        0.00000000     0.00000000     8.38867336
PRIMCOORD
24 1
Ti      1.84595759     2.95148675     3.11213798     0.67174260     0.89292338    -0.96095633
Ti      3.08877302     2.02909269     5.27653547    -0.67174260    -0.89292338     0.96095633
Ti      4.14248718     2.02909439     1.08216522    -0.91721671    -1.10316102     1.65343540
Ti      0.79224348     2.95148524     7.30650833     0.91721671     1.10316102    -1.65343540
Ti      1.72135246     0.46119713     1.08219884     0.67201668     0.89267809     0.95923241
Ti      3.21337816     4.51938246     7.30647471    -0.67201668    -0.89267809    -0.95923241
Ti      0.66763834     0.46119528     5.27650181     0.91720000     1.10315176     1.65537247
Ti      4.26709232     4.51938430     3.11217165    -0.91720000    -1.10315176    -1.65537247
O       1.57074794     1.75374668     4.28067581    -2.41980492    -2.03181117    -0.38661076
O       3.36398267     3.22683276     4.10799765     2.41980492     2.03181117     0.38661076
O       0.94754301     1.75376678     0.08636609     2.32627587    -2.04880411    -0.28493799
O       3.98718765     3.22681271     8.30230713    -2.32627587     2.04880411     0.28493799
O       3.23937753     0.73654299     0.08633889     2.41837436     2.03030579    -0.38664469
O       1.69535308     4.24403645     8.30233433    -2.41837436    -2.03030579     0.38664469
O       3.86258251     0.73652294     4.28070306    -2.32747477     2.04934147    -0.28541158
O       1.07214805     4.24405660     4.10797040     2.32747477    -2.04934147     0.28541158
O       0.32181972     3.02947075     2.26598999    -1.05528294    -0.07376755    -1.16115536
O       4.61291094     1.95110868     6.12268351     1.05528294     0.07376755     1.16115536
O       2.61062938     1.95106228     1.92837341    -0.56778232    -1.09354072    -0.05356381
O       2.32410127     3.02951716     6.46029990     0.56778232     1.09354072     0.05356381
O       0.19721458     0.53918099     1.92834664    -1.05644920    -0.07408842     1.15790625
O       4.73751608     4.44139845     6.46032668     1.05644920     0.07408842    -1.15790625
O       2.19949614     0.53922739     6.12271024     0.56682690     1.09421255    -0.05247958
O       2.73523452     4.44135205     2.26596317    -0.56682690    -1.09421255     0.05247958
