# total energy = -4990.16591823 eV

CRYSTAL
PRIMVEC
        3.89010529     0.00000000     0.00000000
        0.58024333     3.84658769     0.00000000
       -2.23520937    -1.92332401     4.97874170
PRIMCOORD
6 1
Ti      0.43504104     2.88508779     1.24468515    -0.00038669     0.00038669     0.00000000
Ti      1.80009863    -0.96182376     3.73405600     0.00038669    -0.00038669     0.00000000
O       0.14510175     0.96164117     0.81099621    -0.00040161    -0.00054816    -0.49564562
O       2.09003774     0.96162271     4.16774495     0.00040161     0.00054816     0.49564562
O      -0.14507795    -0.96162069     3.30036706    -0.00054816    -0.00040161    -0.49564562
O       2.38021739     2.88488457     1.67837410     0.00054816     0.00040161     0.49564562
