# total energy = -4983.89500900 eV

CRYSTAL
PRIMVEC
        3.49061721     0.00000000     0.00000000
        1.34253887     3.22211078     0.00000000
       -2.41661044    -1.61107699     4.55030923
PRIMCOORD
6 1
Ti      1.00680980     2.41670713     1.13757707     0.00055819    -0.00073611    -0.00161517
Ti      1.40973594    -0.80567331     3.41273154    -0.00055819     0.00073611     0.00161517
O       0.33567101     0.80552347     0.74120808     0.00076567     0.00124339    -1.21455873
O       2.08087457     0.80551027     3.80910058    -0.00076567    -0.00124339     1.21455873
O      -0.33564086    -0.80550337     3.01636260     0.00125187     0.00077647    -1.21695937
O       2.75218638     2.41653708     1.53394611    -0.00125187    -0.00077647     1.21695937
