# total energy = -19074.14982602 eV

CRYSTAL
PRIMVEC
        5.93400000     0.00000000     0.00000000
        0.00000000     9.29699974     0.00000000
        0.00000000     0.00000000     4.64899994
PRIMCOORD
22 1
Ti      4.46244099     7.01447999     2.34334800    -1.37937010     0.39340515    -0.65818208
Ti      4.46972898     2.38596100     2.17852802     0.18116977    -1.75722136     0.68272353
Ti      1.48239799     7.06181198     2.63188099     1.00479212    -0.67943380    -1.17456289
Ti      1.60751999     2.38968699     2.17248899    -0.16882461     0.18207068     0.31703539
Ti      3.04725301     4.52332400     4.51205898    -0.87805905     0.77429417    -0.21758149
Ti      2.94560399     9.24775499     4.56046102     1.29404827     0.53555173     0.59572174
Ti      5.81173699     4.66259498     4.54826201     0.69786476    -0.45492782     0.34143311
Ti      5.92949401     9.21661798     0.21077199    -1.41458755     0.45731329     1.30173227
O       4.37215901     5.45166499     0.95780500     0.26476742     0.51797875     0.32145024
O       4.31780600     0.64388399     1.09559498     0.69152211     1.54881255    -0.47713496
O       1.55490199     0.83292399     0.89700402    -0.45060914     1.37710290     0.32745968
O       4.61898099     8.29247199     3.83461198    -1.14180934     1.11498707    -0.38253118
O       4.46121198     3.90147400     3.49637098     0.02870046    -1.32381651    -0.30159823
O       1.34297201     8.30067302     3.86262800     0.55560789     1.14355178     0.60477074
O       1.46314298     3.95039501     3.56122700     0.14745719    -0.51593832    -0.01856157
O       3.03655199     6.25674902     3.44493802    -0.82791558    -1.22530620    -0.14660333
O       2.91817001     1.47683099     3.30127899     0.04283382    -0.15865306    -0.01291029
O       5.79516400     6.15482900     3.31163600     1.30573780    -1.13577522     0.13145927
O       2.79144503     7.91210102     1.54147899     0.40719810    -0.89728294    -0.36857163
O       3.12331399     3.00637698     1.17768101    -1.28738834     1.57315756    -1.14050348
O       0.02915798     8.01921698     1.56788499     0.21900253    -1.41427464     0.25921897
O       5.89344899     3.15413099     1.24116402     0.70786199    -0.05559576     0.01573541
