# total energy = -4985.38698713 eV

CRYSTAL
PRIMVEC
        2.83500342     0.00000000     0.00000000
        1.30328337     4.24653293     0.00000000
       -0.00000868    -0.00005822     4.49399505
PRIMCOORD
6 1
Ti      2.06913911     2.12323740     2.24699752     0.00000000     0.00000000     0.00000000
Ti      0.00000000     0.00000000     0.00000000     0.00000000     0.00000000     0.00000000
O       1.67149076     0.82757547     0.87581343    -4.65298908     2.12170083     2.46754827
O       2.46678752     3.41889933     3.61818157     4.65298908    -2.12170083    -2.46754827
O       0.39764479     1.29563837     3.12281195     4.65321842    -2.12332371     2.46931256
O       0.90563009     2.95083622     1.37118310    -4.65321842     2.12332371    -2.46931256
