# total energy = -19071.21625384 eV

CRYSTAL
PRIMVEC
        5.17600016     0.00000000     0.00000000
        0.00000000     5.50899976     0.00000000
        0.00000000     0.00000000     9.26300011
PRIMCOORD
22 1
Ti      1.86135298     3.41172199     3.33432199     0.51904653     2.36783982     1.74271442
Ti      3.82513600     2.32514800     5.99639302    -0.40201141     0.53395842    -0.48540774
Ti      4.26824501     2.57132602     1.61132901    -0.11340806    -0.56160473    -0.99820263
Ti      1.24809502     2.43495302     7.79849900     0.36150701     0.96504208    -1.67899964
Ti      1.54625301     0.73169100     1.22184402     0.09577903    -0.67509584    -0.00753899
Ti      3.06729698     5.43713299     8.10697700     0.06986975    -2.17250147    -1.40233058
Ti      0.55395698     5.28242099     6.34210002     2.22557266    -0.45790336    -0.87530668
Ti      4.46304600     5.10098500     3.54198199     0.53996195    -0.04078825     1.31650172
O       3.79510699     3.35674799     4.27297098    -0.61971374    -0.57269622     1.07786444
O       0.50816299     2.00177599     0.09180701    -2.05518148     0.98579397     3.47336548
O       5.10305001     3.57156098     6.71491200     0.43317114    -1.04821729     0.01300130
O       2.69294598     1.36482401     9.07423898     1.56460736     1.89967827     1.91989615
O       1.35291398     4.77476998     8.23219299    -0.68947834    -0.04684346     2.31411377
O       4.37466599     0.71547003     5.14789302    -0.32059329    -1.13747317    -1.81270296
O       1.15664801     4.86593902     4.55732602    -0.59564101    -1.12725303    -0.39922896
O       0.21102499     3.86589001     2.24824802     0.95250126     0.69215511    -0.26397449
O       4.90519100     0.98532402     7.39712499    -1.73471906     1.41922710     0.41802373
O       2.48083100     2.02413198     2.26324199     0.62140244    -0.40812010    -0.31058578
O       2.72107001     3.43469702     7.09570700     0.90560869    -0.49064277    -0.44917395
O       5.15123498     1.18686101     2.37055300    -0.26538525    -1.64442780     0.76536859
O       2.26732798     1.00221901     6.77815498    -0.90808286     0.38704373    -2.05773356
O       2.84620000     4.80831802     2.57368398    -0.58481357     1.13282924    -2.29966340
