# total energy = -4990.34784206 eV

CRYSTAL
PRIMVEC
        3.81382872     0.00000000     0.00000000
        0.56886601     3.77116440     0.00000000
       -2.19138173    -1.88561177     4.88111931
PRIMCOORD
6 1
Ti      0.42651082     2.82851745     1.22027956    -0.00003034     0.00003034     0.00000000
Ti      1.76480257    -0.94296447     3.66083922     0.00003034    -0.00003034     0.00000000
O       0.14225662     0.94278546     0.79509432    -0.00025120    -0.00011056    -0.24243866
O       2.04905661     0.94276737     4.08602446     0.00025120     0.00011056     0.24243866
O      -0.14223328    -0.94276538     3.23565398    -0.00011056    -0.00025120    -0.24243866
O       2.33354646     2.82831821     1.64546480     0.00011056     0.00025120     0.24243866
