# total energy = -19920.45972717 eV

CRYSTAL
PRIMVEC
        6.28660555     0.00000000     0.00000000
        2.86582925     6.04603054     0.00000000
        0.00000000     0.00000000    11.56255328
PRIMCOORD
24 1
Ti      3.97687984     3.58287206     4.28962477     0.21090921    -2.56342680     0.60102207
Ti      5.17555475     2.46315839     7.27292857    -0.21090921     2.56342680    -0.60102207
Ti      6.58933353     2.46316044     1.49160572    -0.98776575    -1.21494980     0.47677089
Ti      2.56310118     3.58287025    10.07094782     0.98776575     1.21494980    -0.47677089
Ti      2.54396536     0.55985689     1.49165206     0.21090921    -2.56342680    -0.60102207
Ti      6.60846926     5.48617375    10.07090148    -0.21090921     2.56342680     0.60102207
Ti      1.13018654     0.55985466     7.27288223     0.98776575     1.21494980     0.47677089
Ti      8.02224815     5.48617596     4.28967118    -0.98776575    -1.21494980    -0.47677089
O       2.99885748     2.12891011     5.90028244     1.80022745     2.10683753    -0.94011265
O       6.15357711     3.91712035     5.66227097    -1.80022745    -2.10683753     0.94011265
O       2.16270792     2.12893453     0.11904299     0.13328218    -1.07549028     1.69124992
O       6.98972676     3.91709604    11.44351011    -0.13328218     1.07549028    -1.69124992
O       4.72066260     0.89410505     0.11900542    -1.80022745    -2.10683753    -0.94011265
O       4.43177200     5.15192546    11.44354761     1.80022745     2.10683753     0.94011265
O       5.55681224     0.89408068     5.90031994    -0.13328218     1.07549028     1.69124992
O       3.59562230     5.15194985     5.66223341     0.13328218    -1.07549028    -1.69124992
O       1.97156668     3.67753854     3.12333411     0.66245346     2.90286936     2.71747939
O       7.18086785     2.36849193     8.43921930    -0.66245346    -2.90286936    -2.71747939
O       4.49436480     2.36843566     2.65797934     0.77255662     2.02609921     1.58581228
O       4.65806979     3.67759479     8.90457382    -0.77255662    -2.02609921    -1.58581228
O       0.53865216     0.65452318     2.65794241     0.66245346     2.90286936    -2.71747939
O       8.61378236     5.39150729     8.90461075    -0.66245346    -2.90286936     2.71747939
O       3.22515527     0.65457944     8.43925611    -0.77255662    -2.02609921     1.58581228
O       5.92727931     5.39145102     3.12329718     0.77255662     2.02609921    -1.58581228
