# total energy = -19073.68231927 eV

CRYSTAL
PRIMVEC
        5.17600016     0.00000000     0.00000000
        0.00000000     5.50899976     0.00000000
        0.00000000     0.00000000     9.26300011
PRIMCOORD
22 1
Ti      1.71242102     3.28535499     3.46478598     0.12572956    -0.21828365    -1.73453497
Ti      3.55571498     2.32397402     5.98186102    -1.82946219     0.63467139     0.12063518
Ti      4.41256598     2.27149499     1.18536900     0.22968162    -0.76293349    -0.32986366
Ti      0.74253400     3.14569300     8.04834601     1.35842640     0.46095320     0.16765784
Ti      1.83064800     0.49061102     1.31092498    -0.06079376     0.64340801    -1.39787434
Ti      3.30764902     5.12326400     8.00548297     0.00915056     0.05851627     1.81009895
Ti      1.59044402     0.13362498     5.65852398    -0.20139073    -0.49417650     1.06474461
Ti      4.22460000     4.95447100     3.41403502     2.67607201     0.73936547     0.79784729
O       3.19029301     3.55047401     4.55823398     1.10348420    -0.52698301     0.46658469
O       0.96523698     1.88862202     0.23096401    -0.73063400     0.44482389    -0.64753514
O       4.34748200     3.63999001     8.93547199    -0.57911035    -0.43058332     0.29763435
O       3.56241500     0.71143801     0.26551902     0.11578402     0.88965165    -0.23055528
O       1.77702600     4.68131198     9.01578802    -1.14128329    -0.38439755     1.13234433
O       2.94862898     0.85678602     4.73347002     1.20697603     0.12559278    -0.94471004
O       0.60347998     4.49173000     4.60639001    -0.41414548    -0.00647687     0.34220290
O       0.04327702     3.59775298     2.43005999    -0.23629578    -1.20643173    -0.38815650
O       0.02245098     2.00791899     6.57224000     0.77723063    -0.35864974     0.06200372
O       2.72849500     2.09043202     2.17124998    -0.45108813    -0.01295656     0.42784895
O       2.27589700     4.04723101     6.77984200    -0.51704415    -0.93572095    -0.66979422
O       0.03583498     0.67203098     2.22941402     0.60848830     0.25981676     1.03770508
O       2.39223799     1.16460101     7.07824701     1.10323969     0.70292650     0.79245388
O       2.69644601     4.73140602     2.59333397    -3.15301517     0.37786823    -2.17673762
