# total energy = -19904.18059476 eV

CRYSTAL
PRIMVEC
        8.06770405     0.00000000     0.00000000
        0.00002540     3.25693955     0.00000000
        0.00000000     0.00000000    12.48679438
PRIMCOORD
24 1
Ti      2.92416985     1.93005932     4.63251167    -0.15061476     0.13880594     1.89908640
Ti      5.14355983     1.32688012     7.85428282     0.15061476    -0.13880594    -1.89908640
Ti      6.95788418     1.32688123     1.61083568    -0.14963646    -0.13923352    -1.89907972
Ti      1.10984550     1.93005838    10.87595892     0.14963646     0.13923352     1.89907972
Ti      2.92415726     0.30158960     1.61088574    -0.15025198     0.13917772    -1.90000223
Ti      5.14357241     2.95534995    10.87590886     0.15025198    -0.13917772     1.90000223
Ti      1.10983291     0.30158843     7.85423276     0.15023964     0.13922760    -1.89852282
Ti      6.95789676     2.95535112     4.63256173    -0.15023964    -0.13922760     1.89852282
O       2.55348832     1.14682376     6.37191558     3.42606025     0.19737775    -0.79544588
O       5.51424141     2.11011568     6.11487891    -3.42606025    -0.19737775     0.79544588
O       1.48042894     1.14683688     0.12855855    -3.42411033     0.19725459    -0.79347127
O       6.58730085     2.11010256    12.35823560     3.42411033    -0.19725459     0.79347127
O       5.51422882     0.48164590     0.12851805    -3.42606951    -0.19691546    -0.79365587
O       2.55350085     2.77529353    12.35827610     3.42606951     0.19691546     0.79365587
O       6.58728826     0.48163278     6.37195614     3.42416201    -0.19664190    -0.79303881
O       1.48044136     2.77530671     6.11483835    -3.42416201     0.19664190     0.79303881
O       0.29313382     1.98105525     3.37299466    -0.86585171     0.22003483     0.82500972
O       7.77459585     1.27588419     9.11379983     0.86585171    -0.22003483    -0.82500972
O       4.32699647     1.27585391     2.87044223    -0.86885116    -0.22004383    -0.82111732
O       3.74073326     1.98108558     9.61635203     0.86885116     0.22004383     0.82111732
O       0.29312123     0.35258548     2.87040235    -0.86608259     0.22030403    -0.82099777
O       7.77460844     2.90435396     9.61639191     0.86608259    -0.22030403     0.82099777
O       3.74072068     0.35261575     9.11383959     0.86906353     0.21974764    -0.82582630
O       4.32700905     2.90432369     3.37295484    -0.86906353    -0.21974764     0.82582630
