# total energy = -39034.04045609 eV

CRYSTAL
PRIMVEC
        7.60600008     0.00000000     0.00000000
        0.00000000     7.60600008     0.00000000
       -3.79573973    -3.79573973     9.71340985
PRIMCOORD
46 1
Ti      1.83445146     4.97738046     6.14029663    -0.04016733    -0.50189469    -0.33034266
Ti      4.02931402     6.80170998     1.30598299     0.23253374     0.09520773     0.19244509
Ti      1.84426146     0.83592447     6.09279165    -0.47458340     0.00064046    -0.51626691
Ti      3.92966301     2.74664202     1.23409998    -0.18142353     1.32661593     1.31853110
Ti     -1.93006453     4.80467744     5.95335164     0.16558579    -1.62679182     1.17947756
Ti      0.13369198     6.64582902     1.18093100     0.96635617     0.78719135    -1.57711629
Ti     -2.07801154     0.98009845     5.91284360     0.28691259     1.62558726     0.90171630
Ti      0.16841002     2.92069900     1.20795301    -0.82805005    -1.25167879    -0.15174194
Ti      3.66042143     0.97961144     8.57116763     0.06348750    -0.11511296    -0.46919102
Ti      5.72440602     2.85065297     3.57242201    -1.02857149    -0.12961913     0.68004830
Ti      3.71010843    -2.76687755     8.40959765    -1.05502069     0.01452725     1.47939582
Ti      5.97824398    -1.00511900     3.73957302    -0.34075049     1.21108208    -1.78193945
Ti     -0.17133754     0.93245847     8.33939864    -0.01784295    -0.51682355    -0.67690795
Ti      1.86003602     2.65671999     3.55296501     1.02694578    -0.42221489     0.43637628
Ti     -0.31149955    -2.74139756     8.59531764     1.00420153    -1.13492032    -0.33421834
Ti      1.99040900    -1.21513501     3.54853299     1.61190102     0.88333701     1.65365626
O       1.53938943    -0.89529155     5.69575160     1.57444337    -1.48063484    -0.32333665
O       3.73917502     0.98936598     1.01854402     0.14510643    -1.39938769    -1.66548128
O      -2.02579958     2.91920545     5.85698360     0.82131658     0.27205110    -1.91207177
O      -0.28462201     4.77634899     0.79215400     1.65168448    -0.35747989    -0.84726802
O      -1.81465457    -0.85958753     5.57497763    -0.00242507    -0.80200219     1.47637452
O       0.02305001     1.00141402     0.94699899     0.82094480     1.10063079    -0.71119414
O       3.57991447     2.87658446     8.94624164     0.48932379     0.13573938     0.26707653
O       5.51086501     4.86754697     4.09122299     0.29071397    -2.45484881    -0.08877714
O       3.97828646    -0.91277556     8.75262664    -0.41232051    -0.33021256     1.58404490
O       5.66754201     0.95692001     3.96760999     1.07820459     0.88365840     0.17796566
O       0.24578743     2.56422346     9.13804564    -0.62388664     0.27851871     0.07805255
O       2.26005899     4.38191598     4.16937300    -0.57417460     1.37708439     1.47473775
O      -0.30604056    -0.95674257     8.96461060     0.34780714     1.74222129    -0.52699227
O       1.77688201     0.70221900     3.89097798     0.53182929     1.98900203     0.50770873
O       1.86833945     0.68046045     8.11324161    -0.11836258     0.38861442    -0.86245502
O       3.90612499     2.70229797     3.19074397    -0.66447872    -0.14390470     0.08749827
O       1.81640943    -2.58873553     8.02183360     0.07016132    -0.63012568     1.15582494
O       4.06063099    -0.90251101     3.15148098    -0.26506412    -0.74601614     0.69206487
O      -2.06628153     0.88179943     7.88330161     0.38358637     0.67554038     0.95890973
O      -0.01789699     2.95078199     3.24209502     1.02319736    -0.20431819    -0.21504586
O      -2.09958557    -3.08035453     8.18122660     3.50268867     0.20596909     0.16877576
O       0.27535198     6.07758997     3.54348803    -2.78201539     0.37153740    -1.29601079
O       3.83970843     4.76253143     6.53714565    -1.33902768     0.67532209    -0.88884458
O       6.10015499     6.80868999     1.72113398    -3.21753240    -0.07047525     1.05318647
O       3.69867047     1.13412247     6.15476164    -0.99429096    -0.19623001     0.65663685
O       5.73358603     3.11035401     1.66091398    -0.12312529    -0.39547824    -0.77102810
O       0.01333543     4.85615146     6.44206763    -2.31761382    -1.05112367     0.68433253
O       2.05188002     6.60588101     1.73941202    -0.22426944    -0.57369046    -1.88456044
O      -0.05020453     1.09992444     6.43190663     0.25510109     0.49869855     0.36335229
O       2.00632199     3.12670898     1.72189499    -0.71903601    -0.00379289    -1.39739869
