# total energy = -4986.37026032 eV

CRYSTAL
PRIMVEC
        2.98609681     0.00000000     0.00000000
        0.00000000     3.82808133     0.00000000
        0.00000000    -0.00005621     4.29638765
PRIMCOORD
6 1
Ti      1.49304840     1.91401251     2.14819392     0.00000000     0.00000000     0.00000000
Ti      0.00000000     0.00000000     0.00000000     0.00000000     0.00000000     0.00000000
O       1.49304840     0.74602570     0.83730273     0.00000000    -0.23659429    -0.48641665
O       1.49304840     3.08199932     3.45908512     0.00000000     0.23659429     0.48641665
O       0.00000000     1.16796406     2.98549742     0.00000000     0.23717793    -0.48757801
O       0.00000000     2.66006096     1.31089042     0.00000000    -0.23717793     0.48757801
