# total energy = -19881.55133667 eV

CRYSTAL
PRIMVEC
        9.38105122     0.00000000     0.00000000
        0.00002954     3.78713901     0.00000000
        0.00000000     0.00000000    14.51952834
PRIMCOORD
24 1
Ti      3.40019750     2.24425502     5.38664148     0.25140642    -0.17104219     2.40516017
Ti      5.98088352     1.54288386     9.13288700    -0.25140642     0.17104219    -2.40516017
Ti      8.09056300     1.54288515     1.87306475     0.25174915     0.17088561    -2.40526841
Ti      1.29051802     2.24425393    12.64646386    -0.25174915    -0.17088561     2.40526841
Ti      3.40018286     0.35068558     1.87312296     0.25139022    -0.17074831    -2.40438575
Ti      5.98089816     3.43645343    12.64640565    -0.25139022     0.17074831     2.40438575
Ti      1.29050338     0.35068423     9.13282879    -0.25129612    -0.17101699    -2.40556718
Ti      8.09057763     3.43645479     5.38669969     0.25129612     0.17101699     2.40556718
O       2.96917247     1.33351600     7.40920416     0.89070811     0.79834583    -2.35809328
O       6.41190862     2.45362288     7.11032432    -0.89070811    -0.79834583     2.35809328
O       1.72142900     1.33353125     0.14948669    -0.89208931     0.79830674    -2.35788836
O       7.65965215     2.45360763    14.37004139     0.89208931    -0.79830674     2.35788836
O       6.41189398     0.56005337     0.14943959    -0.89235722    -0.79844096    -2.35719879
O       2.96918704     3.22708551    14.37008849     0.89235722     0.79844096     2.35719879
O       7.65963751     0.56003812     7.40925132     0.89151287    -0.79869704    -2.35980718
O       1.72144344     3.22710083     7.11027715    -0.89151287     0.79869704     2.35980718
O       0.34085328     2.30355262     3.92208682    -1.86747442     0.56845672     0.05591329
O       9.04022774     1.48358626    10.59744166     1.86747442    -0.56845672    -0.05591329
O       5.03139124     1.48355106     3.33772352    -1.86671595    -0.56846701    -0.05328485
O       4.34968984     2.30358789    11.18180469     1.86671595     0.56846701     0.05328485
O       0.34083864     0.40998311     3.33767716    -1.86709133     0.56838036    -0.05271509
O       9.04024237     3.37715577    11.18185106     1.86709133    -0.56838036     0.05271509
O       4.34967521     0.41001831    10.59748789     1.86692858     0.56845235    -0.05588500
O       5.03140588     3.37712057     3.92204051    -1.86692858    -0.56845235     0.05588500
