# total energy = -19961.06955483 eV

CRYSTAL
PRIMVEC
        5.30680480     0.00000000     0.00000000
        0.28225495     5.64098797     0.00000000
        0.00000000     0.00000000     9.50098364
PRIMCOORD
24 1
Ti      2.09072545     3.34284411     3.52479717     0.19967040    -0.48705685     0.36747171
Ti      3.49833408     2.29814365     5.97618659    -0.19967040     0.48705685    -0.36747171
Ti      4.69176725     2.29814558     1.22565674    -0.22404396    -0.03172537    -0.00858132
Ti      0.89729234     3.34284240     8.27532712     0.22404396     0.03172537     0.00858132
Ti      1.94959809     0.52235034     1.22569482     0.19914358    -0.48647270    -0.36304350
Ti      3.63946145     5.11863759     8.27528904    -0.19914358     0.48647270     0.36304350
Ti      0.75616497     0.52234825     5.97614846     0.22340324     0.03091624    -0.01393513
Ti      4.83289462     5.11863968     3.52483530    -0.22340324    -0.03091624     0.01393513
O       1.77902391     1.98628768     4.84827923     0.46085550     0.50535848    -0.12735399
O       3.81003562     3.65470009     4.65270452    -0.46085550    -0.50535848     0.12735399
O       1.07318407     1.98631044     0.09781795    -0.29105259     0.16586501     0.17099668
O       4.51587551     3.65467738     9.40316553     0.29105259    -0.16586501    -0.17099668
O       3.66890826     0.83420615     0.09778714    -0.46159238    -0.50562639    -0.12770546
O       1.92015128     4.80678161     9.40319634     0.46159238     0.50562639     0.12770546
O       4.37474815     0.83418344     4.84831009     0.29021106    -0.16523972     0.17139828
O       1.21431133     4.80680443     4.65267366    -0.29021106     0.16523972    -0.17139828
O       0.36449195     3.43116853     2.56645275     0.03341330     0.02305329     0.10446422
O       5.22456764     2.20981923     6.93453105    -0.03341330    -0.02305329    -0.10446422
O       2.95679019     2.20976667     2.18406933     0.25925548     0.15096778    -0.10505891
O       2.63226940     3.43122109     7.31691426    -0.25925548    -0.15096778     0.10505891
O       0.22336458     0.61067460     2.18403901     0.03294767     0.02248148    -0.10489771
O       5.36569501     5.03031316     7.31694458    -0.03294767    -0.02248148     0.10489771
O       2.49114203     0.61072715     6.93456132    -0.25968897    -0.15060834    -0.10405490
O       3.09791755     5.03026061     2.56642238     0.25968897     0.15060834     0.10405490
