# total energy = -4977.25951496 eV

CRYSTAL
PRIMVEC
        4.09420173     0.00000000     0.00000000
        0.00000000     2.13833355     0.00000000
        0.00000000    -0.00011279     5.70222200
PRIMCOORD
6 1
Ti      2.04710067     1.06911034     2.85111100     0.00000000     0.00000000     0.00000000
Ti      0.00000000     0.00000000     0.00000000     0.00000000     0.00000000     0.00000000
O       2.04710067     0.41670773     1.11127910    -0.00000000    -1.08050805    -1.03945291
O       2.04710067     1.72151299     4.59094295    -0.00000000     1.08050805     1.03945291
O       0.00000000     0.65235831     3.96239125     0.00000000     1.08058261    -1.04266294
O       0.00000000     1.48586241     1.73983074     0.00000000    -1.08058261     1.04266294
