# total energy = -19958.54557349 eV

CRYSTAL
PRIMVEC
        5.37195114     0.00000000     0.00000000
        0.85283905     5.65341531     0.00000000
        0.00000000     0.00000000     9.64191580
PRIMCOORD
24 1
Ti      2.45246553     3.35020862     3.57708202     0.48932919    -1.21313614     0.71786024
Ti      3.77232460     2.30320653     6.06483400    -0.48932919     1.21313614    -0.71786024
Ti      4.98040855     2.30320844     1.24383743    -0.78078930    -0.33509766     0.26346670
Ti      1.24438160     3.35020693     8.39807870     0.78078930     0.33509766    -0.26346670
Ti      2.02604612     0.52350107     1.24387610     0.48932919    -1.21313614    -0.71786024
Ti      4.19874402     5.12991425     8.39804004    -0.48932919     1.21313614     0.71786024
Ti      0.81796216     0.52349899     6.06479533     0.78078930     0.33509766     0.26346670
Ti      5.40682798     5.12991632     3.57712069    -0.78078930    -0.33509766    -0.26346670
O       2.00055556     1.99066357     4.92019588     0.76545369     0.99255880    -0.43134617
O       4.22423457     3.66275158     4.72172009    -0.76545369    -0.99255880     0.43134617
O       1.28605309     1.99068642     0.09926892    -0.22986956    -0.04973749     0.45691503
O       4.93873710     3.66272878     9.54264683     0.22986956     0.04973749    -0.45691503
O       3.79781515     0.83604386     0.09923765    -0.76545369    -0.99255880    -0.43134617
O       2.42697498     4.81737129     9.54267810     0.76545369     0.99255880     0.43134617
O       4.51231768     0.83602106     4.92022721     0.22986956     0.04973749     0.45691503
O       1.71247240     4.81739415     4.72168882    -0.22986956    -0.04973749    -0.45691503
O       0.71392045     3.43872766     2.60452205     0.02331940     0.32935535     0.31541303
O       5.51086967     2.21468744     7.03739397    -0.02331940    -0.32935535    -0.31541303
O       3.21524763     2.21463486     2.21646663     0.62734066     0.35638383    -0.14478607
O       3.00954249     3.43878024     7.42544923    -0.62734066    -0.35638383     0.14478607
O       0.28750103     0.61201994     2.21643580     0.02331940     0.32935535    -0.31541303
O       5.93728909     5.04139516     7.42548001    -0.02331940    -0.32935535     0.31541303
O       2.58312307     0.61207252     7.03742470    -0.62734066    -0.35638383    -0.14478607
O       3.64166705     5.04134258     2.60449127     0.62734066     0.35638383     0.14478607
