# total energy = -19850.21013814 eV

CRYSTAL
PRIMVEC
        6.98726588     0.00000000     0.00000000
        0.00002172     2.47885463     0.00000000
        0.00000000     0.00000000    11.11615068
PRIMCOORD
24 1
Ti      2.53256052     1.46896687     4.12401271    -1.49512327     0.83549494    -1.99845932
Ti      4.45472680     1.00988752     6.99213830     1.49512327    -0.83549494     1.99845932
Ti      6.02607428     1.00988831     1.43401838    -1.49237861    -0.83623722     2.00133279
Ti      0.96121309     1.46896617     9.68213273     1.49237861     0.83623722    -2.00133279
Ti      2.53254995     0.22953961     1.43406296    -1.49512327     0.83549494     1.99845932
Ti      4.45473742     2.24931488     9.68208815     1.49512327    -0.83549494    -1.99845932
Ti      0.96120246     0.22953876     6.99209372     1.49237861     0.83623722     2.00133279
Ti      6.02608490     2.24931572     4.12405729    -1.49237861    -0.83623722    -2.00133279
O       2.21152131     0.87284678     5.67248674    11.96692488    -1.84946795     6.99104061
O       4.77576606     1.60600766     5.44366428   -11.96692488     1.84946795    -6.99104061
O       1.28216757     0.87285684     0.11444702   -11.96880899    -1.84961605     6.99166950
O       5.70511985     1.60599759    11.00170366    11.96880899     1.84961605    -6.99166950
O       4.77575544     0.36658030     0.11441092   -11.96692488     1.84946795     6.99104061
O       2.21153193     2.11227409    11.00173976    11.96692488    -1.84946795    -6.99104061
O       5.70510922     0.36657028     5.67252279    11.96880899     1.84961605     6.99166950
O       1.28217805     2.11228415     5.44362823   -11.96880899    -1.84961605    -6.99166950
O       0.25387657     1.50777990     3.00274968     3.99383435    -1.16134639     7.92326022
O       6.73341079     0.97107449     8.11340129    -3.99383435     1.16134639    -7.92326022
O       3.74751875     0.97105151     2.55536115     3.99524126     1.16172023    -7.92243464
O       3.23976861     1.50780292     8.56078968    -3.99524126    -1.16172023     7.92243464
O       0.25386595     0.26835259     2.55532567     3.99383435    -1.16134639    -7.92326022
O       6.73342142     2.21050185     8.56082516    -3.99383435     1.16134639     7.92326022
O       3.23975804     0.26837556     8.11343673    -3.99524126    -1.16172023    -7.92243464
O       3.74752933     2.21047882     3.00271420     3.99524126     1.16172023     7.92243464
