# total energy = -4986.48714306 eV

CRYSTAL
PRIMVEC
        2.75200926     0.00000000     0.00000000
        0.64318044     4.26374736     0.00000000
       -0.00000404    -0.00005597     4.32423306
PRIMCOORD
6 1
Ti      1.69759258     2.13184561     2.16211648     0.00000000     0.00000000     0.00000000
Ti      0.00000000     0.00000000     0.00000000     0.00000000     0.00000000     0.00000000
O       1.50135011     0.83093060     0.84272930    -2.79445027     1.57270762     1.67978768
O       1.89383504     3.43276063     3.48150361     2.79445027    -1.57270762    -1.67978768
O       0.19624071     1.30089233     3.00484670     2.79470147    -1.57379160     1.68081149
O       0.44693529     2.96279898     1.31938621    -2.79470147     1.57379160    -1.68081149
