# total energy = -19068.94678368 eV

CRYSTAL
PRIMVEC
        5.17600016     0.00000000     0.00000000
        0.00000000     5.50899976     0.00000000
        0.00000000     0.00000000     9.26300011
PRIMCOORD
22 1
Ti      1.62939999     3.36427300     3.24729598     2.13711640     1.40294507     1.61485470
Ti      3.70405702     2.05521299     5.93171300    -0.58979509     1.00234545    -0.43049385
Ti      4.18445498     2.18208398     1.64841100     1.98909587     0.52503514     0.13067482
Ti      1.20128401     2.79647999     7.78085702    -2.24153459     1.59383001     1.63429739
Ti      1.77956901     0.63886098     1.12296799    -0.65078759    -0.64549034    -0.32156439
Ti      3.39303801     5.46119500     8.06480300    -0.75700273    -0.48632717    -2.12007563
Ti      0.79740799     0.01165301     6.20207802    -0.86527347    -0.63846609    -1.04072124
Ti      4.32194999     5.07095699     3.42334802     1.73550042     1.51100344     3.20582333
O       3.26214099     2.52692498     4.10038898     0.00777965     0.45764625     1.76765233
O       0.72087901     2.16038999     0.21450703    -0.30566571    -0.21427633    -0.14123563
O       4.95075301     3.84063502     7.06203201    -1.19419379     0.55238218     0.16131750
O       3.46758998     1.14156402     0.34525799    -0.09082760    -2.05455773    -3.03670639
O       1.92295699     4.62938001     9.05605598     0.43967217     1.07385326     0.83489407
O       3.96552202     0.26570598     5.78305299    -0.18183388    -1.46004389    -3.88548519
O       1.22950598     5.18898501     4.28851498    -1.65952712    -1.02144773     1.28003215
O       5.06000202     3.69613201     2.55196200     1.20364954    -1.62101018    -1.17898982
O       4.88581301     1.34713499     7.32879000     1.51608831     0.82071340     1.48417654
O       2.38127699     2.43190200     1.83511098    -1.12632564     0.54643830     1.00041610
O       2.09363698     4.36600902     6.61884898     1.76329791    -2.58651454     1.10863361
O       0.06723398     0.79521201     2.29807302     0.41808364     0.13986549     0.30286244
O       2.10489798     1.24519000     7.21634698     1.72268629     0.67294074    -0.99790490
O       2.92226801     4.93867702     2.44770900    -3.27020326     0.42913553    -1.37245846
