# total energy = -4988.25182686 eV

CRYSTAL
PRIMVEC
        4.13157037     0.00000000     0.00000000
        0.41211713     4.11096499     0.00000000
       -2.27188040    -2.05551565     5.27942303
PRIMCOORD
6 1
Ti      0.30892954     3.08338013     1.31985550     0.00009436    -0.00009436    -0.00000000
Ti      1.96287721    -1.02793111     3.95956690    -0.00009436     0.00009436     0.00000000
O       0.10307284     1.02773475     0.85997478    -0.00038592    -0.00167816    -0.97295722
O       2.16873379     1.02771416     4.41944773     0.00038592     0.00167816     0.97295722
O      -0.10304997    -1.02771406     3.49968618    -0.00167816    -0.00038592    -0.97295722
O       2.37485654     3.08316291     1.77973633     0.00167816     0.00038592     0.97295722
