# total energy = -19961.59385163 eV

CRYSTAL
PRIMVEC
        7.60600008     0.00000000     0.00000000
        0.00000000     7.60600008     0.00000000
       -1.89786986    -1.89786986     4.85670466
PRIMCOORD
24 1
Ti      3.82734802     6.64123598     1.15296398    -1.36353879     0.14610608     0.71246246
Ti      3.78954597     2.89016902     1.17179698    -0.12286150    -0.22648599     1.21931219
Ti     -0.01289399     6.69118502     1.23175901     1.16334208    -1.07005265    -0.58290761
Ti     -0.02852599     2.77666299     1.24533103     0.11489981     1.59433626     0.02708041
Ti      5.75086620     2.77141323     3.70474982    -1.28067673     0.98082171    -0.34893097
Ti      5.74864223    -0.97418378     3.61822082    -1.14101075    -0.56487415     0.02973610
Ti      1.84560525     2.80745121     3.62773680     1.95186372     0.40229706    -0.47003383
Ti      1.88799923    -0.94470178     3.71432480     0.88917085     0.09791047    -1.20939518
O       3.80198900     4.72511601     0.72386500     0.12727274     1.72899347    -0.34135135
O       3.69376701     1.03984901     0.84077999     0.54622310    -1.47221010    -0.62029635
O      -0.01401600     4.71265102     0.86647001    -0.12447435     0.70711842    -0.87131016
O      -0.04914099     0.97219000     0.77580899     0.06864719    -0.39286908    -0.13275665
O       5.85734921     4.71194822     4.09242983    -0.10222170     0.53683291     0.15484706
O       5.67572123     0.94518222     3.99389984     0.03779112    -0.46316924     0.51268227
O       1.76062923     4.79748121     4.03393379     0.26739663    -0.57696373     0.76556219
O       1.93404924     0.93901720     3.96216481     0.14551807     0.38282712     0.34930069
O       3.74681020     2.85083623     3.12981779     0.71900027     0.06385311     0.81867452
O       3.85074924    -1.10168777     3.26129881    -0.14505270     0.22463300    -0.24561423
O       0.03815024     2.71505623     3.24154383    -1.07183906    -0.06827696    -0.69355868
O       0.03365620    -0.85988879     3.18260682    -0.96070591    -0.16247398     0.22462220
O       5.66409002     6.68619900     1.60260002     0.66291549     0.07590491     0.01452777
O       5.68533601     2.99699700     1.63422598     0.98311128    -0.64787401     0.41178906
O       1.91807301     6.77563202     1.67777198     0.12036495    -0.48111092    -0.28326137
O       1.92922600     3.06670901     1.52958901    -1.48513607    -0.81527320     0.55881919
