# total energy = -4984.04037283 eV

CRYSTAL
PRIMVEC
        4.43066767     0.00000000     0.00000000
       -0.00000986     4.43066767     0.00000000
       -2.21536858    -2.21537351     5.65451734
PRIMCOORD
6 1
Ti     -0.00019511     3.32316856     1.41362918    -0.00149227     0.00149227     0.00000000
Ti      2.21548421    -1.10787453     4.24088779     0.00149227    -0.00149227     0.00000000
O       0.00004426     1.10765939     0.92107461    -0.00042423    -0.00243869    -1.26335906
O       2.21524472     1.10763452     4.73344242     0.00042423     0.00243869     1.26335906
O      -0.00002502    -1.10764016     3.74833321    -0.00243869    -0.00042423    -1.26335906
O       2.21531394     3.32293400     1.90618381     0.00243869     0.00042423     1.26335906
