# total energy = -4984.75283452 eV

CRYSTAL
PRIMVEC
        3.41183470     0.00000000     0.00000000
        0.00000000     3.20749984     0.00000000
        0.00000000    -0.00006317     4.56177750
PRIMCOORD
6 1
Ti      1.70591720     1.60371843     2.28088885     0.00000000     0.00000000     0.00000000
Ti      0.00000000     0.00000000     0.00000000     0.00000000     0.00000000     0.00000000
O       1.70591720     0.62508220     0.88902330     0.00000000    -2.42757866    -2.38000577
O       1.70591720     2.58235466     3.67275445     0.00000000     2.42757866     2.38000577
O       0.00000000     0.97861100     3.16991303     0.00000000     2.42741205    -2.38000269
O       0.00000000     2.22882586     1.39186466     0.00000000    -2.42741205     2.38000269
