# total energy = -19957.13771477 eV

CRYSTAL
PRIMVEC
        4.91850201     0.00000000     0.00000000
        0.26160215     5.22823276     0.00000000
        0.00000000     0.00000000     8.80578972
PRIMCOORD
24 1
Ti      1.93774554     3.09824576     3.26688518     0.44694866     0.26099561    -0.26510835
Ti      3.24235842     2.12998680     5.53890464    -0.44694866    -0.26099561     0.26510835
Ti      4.34846721     2.12998859     1.13597454    -0.56773501    -0.64507254     0.80285683
Ti      0.83163680     3.09824418     7.66981538     0.56773501     0.64507254    -0.80285683
Ti      1.80694457     0.48412958     1.13600983     0.44688438     0.26223488     0.26060788
Ti      3.37315939     4.74410313     7.66978009    -0.44688438    -0.26223488    -0.26060788
Ti      0.70083582     0.48412764     5.53886930     0.56731695     0.64633135     0.80644043
Ti      4.47926819     4.74410507     3.26692052    -0.56731695    -0.64633135    -0.80644043
O       1.64885143     1.84094955     4.49352709    -0.98668434    -0.79207824    -0.22400282
O       3.53125253     3.38728301     4.31226273     0.98668434     0.79207824     0.22400282
O       0.99465841     1.84097065     0.09066054     1.03380008    -0.98083971    -0.01865902
O       4.18544560     3.38726196     8.71512903    -1.03380008     0.98083971     0.01865902
O       3.40045155     0.77316668     0.09063198     0.98672934     0.79200445    -0.22436174
O       1.77965240     4.45506588     8.71515759    -0.98672934    -0.79200445     0.22436174
O       4.05464462     0.77314563     4.49355570    -1.03371061     0.98038437    -0.01837105
O       1.12545928     4.45508703     4.31223412     1.03371061    -0.98038437     0.01837105
O       0.33782180     3.18010742     2.37866353    -0.51782782    -0.02359399    -0.53241601
O       4.84228220     2.04812514     6.42712634     0.51782782     0.02359399     0.53241601
O       2.74043968     2.04807643     2.02425938    -0.15012934    -0.48210799    -0.08801198
O       2.43966432     3.18015613     6.78153029     0.15012934     0.48210799     0.08801198
O       0.20702083     0.56599109     2.02423128    -0.51784608    -0.02388042     0.53300814
O       4.97308318     4.66224147     6.78155839     0.51784608     0.02388042    -0.53300814
O       2.30886335     0.56603980     6.42715439     0.14989640     0.48220826    -0.08866247
O       2.87124066     4.66219276     2.37863538    -0.14989640    -0.48220826     0.08866247
