# total energy = -19519.83121867 eV

CRYSTAL
PRIMVEC
        5.17575250     0.00001323     0.00000000
        0.00001429     5.50856584     0.00000000
        0.00000000     0.00000000     9.26345890
PRIMCOORD
23 1
Ti      1.87894681     3.27861201     3.42438048    -0.19656682     0.11497695    -0.05483034
Ti      3.30312003     2.23424831     5.79838461     0.02292679    -0.17921624    -0.13823078
Ti      4.52342101     2.07272898     1.32346116    -0.07531972     0.08042671    -0.00431945
Ti      0.78603253     3.25332611     7.97526346     0.17310087     0.00250760     0.04690620
Ti      1.87374350     0.55852873     1.15929698    -0.03822435     0.04409341    -0.04955443
Ti      3.22197378     5.07410078     8.00641300     0.08884605     0.06019983    -0.12462682
Ti      0.67838982     0.50597691     5.80704707    -0.03911883     0.12789957    -0.09084688
Ti      4.43188725     4.94906348     3.45013941    -0.12399715    -0.23323951    -0.00530624
O       1.62616976     1.93980319     4.72923776     0.03719565     0.05976737    -0.07068685
O       3.53094922     3.58302658     4.52273544     0.00500594     0.02366341     0.02694054
O       0.87639929     1.99422866     0.07809451     0.03757566    -0.13706222     0.04825320
O       3.56167527     0.82612397     0.09521953    -0.04233477     0.13129215     0.04318452
O       1.66886737     4.66438661     9.20353506     0.02286072    -0.00869290    -0.11022015
O       4.23662304     0.82278784     4.74001433    -0.05990801     0.00853709    -0.00880835
O       0.94881067     4.68697953     4.55189524     0.01746217    -0.14178662     0.04790867
O       0.16972928     3.39843936     2.45974206     0.02827520    -0.04381624     0.03557868
O       4.98867256     2.13483536     6.77536482     0.01227188     0.02837008     0.06286324
O       2.74345754     2.18618345     2.10336945     0.13584069    -0.00397313    -0.02159265
O       2.50258015     3.36146790     7.16485333    -0.12032947    -0.04324880     0.05369108
O       0.18015294     0.60428368     2.15227473     0.17764273    -0.08915766     0.20203608
O       4.96675158     4.85421492     7.24261749     0.05099836     0.06948177    -0.01507953
O       2.39723141     0.62496208     6.74028070    -0.10363324     0.04700055     0.13487344
O       2.78760306     4.92574673     2.48980240    -0.01056981     0.08197683    -0.00813266
