# total energy = -19940.27790831 eV

CRYSTAL
PRIMVEC
        5.50570668     0.00000000     0.00000000
        0.00002326     4.33110989     0.00000000
        0.00000000     0.00000000     8.76593319
PRIMCOORD
24 1
Ti      1.99556766     2.56661174     3.25209869    -0.65744135     2.28840788    -4.21448702
Ti      3.51016233     1.76449829     5.51383454     0.65744135    -2.28840788     4.21448702
Ti      4.74832591     1.76449980     1.13083290    -0.65332707    -2.28856008     4.21616466
Ti      0.75740407     2.56661043     7.63510043     0.65332707     2.28856008    -4.21616466
Ti      1.99555613     0.40105690     1.13086805    -0.65737656     2.28824512     4.21347220
Ti      3.51017386     3.93005329     7.63506528     0.65737656    -2.28824512    -4.21347220
Ti      0.75739254     0.40105524     5.51379940     0.65309207     2.28868890     4.21718256
Ti      4.74833745     3.93005494     3.25213384    -0.65309207    -2.28868890    -4.21718256
O       1.74259915     1.52505745     4.47318861     0.89936271    -2.62948001     3.00017897
O       3.76313089     2.80605259     4.29274463    -0.89936271     2.62948001    -3.00017897
O       1.01030282     1.52507492     0.09025021    -0.89928095    -2.63028193     3.00054972
O       4.49542727     2.80603517     8.67568278     0.89928095     2.63028193    -3.00054972
O       3.76311936     0.64049759     0.09022177    -0.89941387     2.62938539     2.99998048
O       1.74261068     3.69061244     8.67571122     0.89941387    -2.62938539    -2.99998048
O       4.49541574     0.64048017     4.47321705     0.89927632     2.63018886     3.00044379
O       1.01031425     3.69062991     4.29271619    -0.89927632    -2.63018886    -3.00044379
O       0.20004922     2.63442655     2.36789725     2.24511202    -0.83736670     1.07126724
O       5.30568082     1.69668349     6.39803599    -2.24511202     0.83736670    -1.07126724
O       2.95290849     1.69664309     2.01509725     2.24655056     0.83765389    -1.07147396
O       2.55282155     2.63446699     6.75083584    -2.24655056    -0.83765389     1.07147396
O       0.20003768     0.46887160     2.01506925     2.24489040    -0.83758139    -1.07135337
O       5.30569235     3.86223848     6.75086384    -2.24489040     0.83758139     1.07135337
O       2.55281001     0.46891200     6.39806394    -2.24679224    -0.83765389    -1.07142254
O       2.95292002     3.86219804     2.36786925     2.24679224     0.83765389     1.07142254
