# total energy = -19516.72010696 eV

CRYSTAL
PRIMVEC
        5.17600016     0.00000000     0.00000000
        0.00000000     5.50899976     0.00000000
        0.00000000     0.00000000     9.26300011
PRIMCOORD
23 1
Ti      1.83674899     3.19676098     3.39907402    -0.54744155     0.76343049     1.73590254
Ti      3.28720299     2.26764400     5.86850903     1.07416822     1.02554941    -2.33615791
Ti      4.31302600     2.00857401     1.45488998     2.14657652     0.75446582    -1.21146209
Ti      0.94260899     3.24635802     7.70115102    -2.12579428     0.58288730     2.90080965
Ti      2.05529401     0.20938401     1.34245400    -0.50772493     0.38539977    -1.77888677
Ti      3.29405001     5.25750399     7.88334902     0.54205997    -0.04310199     1.34318413
Ti      0.68565798     0.61109997     5.94238201    -0.78177712    -0.60301879    -1.96607781
Ti      4.47770903     4.97249499     3.31814901     0.84009490    -0.58654444     2.33657931
O       1.68305899     1.90782999     4.86492098    -0.72290732     0.63329971    -0.52249566
O       3.61993202     3.58210500     4.50213098    -1.31454460    -0.45988182    -0.02965769
O       0.14629100     2.90986500     0.19787498    -0.05198438    -0.92410187    -2.06393789
O       3.51600902     0.86606498     0.11602301    -0.20055306     0.24836917     0.66482222
O       1.81267698     4.67754398     9.06361501     0.84311003    -0.06381018    -0.70764087
O       4.18801703     0.78137598     5.06688101    -0.21263314    -0.43814185    -1.95687300
O       0.84400300     4.76377198     4.43294402     1.18088678     0.14630842     0.22099745
O       0.07138601     3.41840598     2.50793101     1.33705153    -0.95337749     1.01689225
O       4.80466003     1.96960000     6.98578900     1.85995909     0.79978796     0.65756579
O       2.60712899     1.84682400     2.33103103    -0.01189624    -0.02733238    -0.39471642
O       2.59749500     3.74046500     6.95515101     0.07337134    -0.43577027    -0.12346391
O       0.25419098     0.51326902     1.86701597    -0.36522045     0.50896369     0.80303192
O       0.01674899     4.81311199     7.16916802    -0.93886386    -0.81716142     0.66398635
O       2.34490600     1.04461298     7.08400901    -1.70348040     0.19321693    -0.13887562
O       2.93146300     4.45622898     2.22556600    -0.41245729    -0.68943668     0.88647350
