# total energy = -19958.11948860 eV

CRYSTAL
PRIMVEC
        4.94438886     0.00000000     0.00000000
        0.26297900     5.25574977     0.00000000
        0.00000000     0.00000000     8.85213598
PRIMCOORD
24 1
Ti      1.94794420     3.11455232     3.28407931     0.42780061     0.20304626    -0.19879648
Ti      3.25942346     2.14119726     5.56805677    -0.42780061    -0.20304626     0.19879648
Ti      4.37135388     2.14119905     1.14195336    -0.53836015    -0.59856332     0.73696380
Ti      0.83601384     3.11455072     7.71018283     0.53836015     0.59856332    -0.73696380
Ti      1.81645480     0.48667763     1.14198883     0.42757667     0.20194583     0.20608865
Ti      3.39091286     4.76907209     7.71014735    -0.42757667    -0.20194583    -0.20608865
Ti      0.70452443     0.48667568     5.56802124     0.53817914     0.59714150     0.72847479
Ti      4.50284328     4.76907404     3.28411484    -0.53817914    -0.59714150    -0.72847479
O       1.65752959     1.85063876     4.51717723    -0.85724082    -0.67902423    -0.21262697
O       3.54983807     3.40511081     4.33495885     0.85724082     0.67902423     0.21262697
O       0.99989345     1.85065997     0.09113770     0.91676780    -0.88165705     0.00232222
O       4.20747426     3.40508965     8.76099813    -0.91676780     0.88165705    -0.00232222
O       3.41834867     0.77723598     0.09110899     0.85723105     0.67877637    -0.21254855
O       1.78901899     4.47851360     8.76102684    -0.85723105    -0.67877637     0.21254855
O       4.07598486     0.77721482     4.51720599    -0.91679274     0.88129196     0.00198001
O       1.13138275     4.47853486     4.33493009     0.91679274    -0.88129196    -0.00198001
O       0.33959981     3.19684483     2.39118281    -0.46977003    -0.01960750    -0.47605407
O       4.86776790     2.05890474     6.46095332     0.46977003     0.01960750     0.47605407
O       2.75486305     2.05885578     2.03491338    -0.11293703    -0.42640579    -0.09020796
O       2.45250466     3.19689380     6.81722255     0.11293703     0.42640579     0.09020796
O       0.20811041     0.56896999     2.03488513    -0.46977337    -0.01981190     0.47673207
O       4.99925730     4.68677958     6.81725080     0.46977337     0.01981190    -0.47673207
O       2.32101526     0.56901896     6.46098152     0.11269432     0.42647675    -0.09082811
O       2.88635245     4.68673061     2.39115451    -0.11269432    -0.42647675     0.09082811
