# total energy = -39034.14721538 eV

CRYSTAL
PRIMVEC
        7.60600008     0.00000000     0.00000000
        0.00000000     7.60600008     0.00000000
       -3.79573973    -3.79573973     9.71340985
PRIMCOORD
46 1
Ti      1.82085145     4.97283044     6.23862962     0.51297332    -1.52944442     0.13250879
Ti      4.05783403     6.87344102     1.31464298    -0.36720123    -1.15838936     0.20135062
Ti      1.81499245     0.84255946     6.04743962    -0.56037394     0.28836861    -2.73231543
Ti      3.85573599     2.85946399     1.25602898    -0.15468251    -0.37412624     0.28876970
Ti     -1.93068055     4.80750943     6.01445362    -1.24348751    -2.22398295    -0.06042198
Ti      0.18187198     6.55140899     1.13402600    -0.40207980     0.30729914     2.66216388
Ti     -2.09233954     0.96955046     5.89576462     0.34306731     2.19434635    -0.12456305
Ti      0.12178797     2.91932198     1.24074602    -0.53557050    -1.12268444    -0.59352910
Ti      3.65554343     1.01595343     8.46254665    -0.99382841    -2.23118872    -0.09815473
Ti      5.65952201     2.83803998     3.47974497     0.82583273     1.31036038     1.63272619
Ti      3.75803448    -2.82335854     8.52360963    -0.52703212     2.44391417    -0.57101291
Ti      5.99845898    -0.97256899     3.75471198     0.07624943    -0.64037025     0.15927064
Ti     -0.39439353     0.86223744     8.36255760     1.66447187     1.09561560    -0.64169514
Ti      1.95715402     2.68517401     3.58135701    -0.31279616     0.46229403     0.50375874
Ti     -0.19551956    -2.81759157     8.59568563     1.71559416    -0.43445669     0.50294345
Ti      2.16425298    -1.13987600     3.61100797    -0.56023459    -0.04973929     0.49625035
O       1.80475446    -0.99038555     5.62904664     0.11791855     0.42082547    -0.54600713
O       3.74127400     0.98986002     0.89177702     0.05884846    -0.17782270    -0.51302346
O      -1.94504655     2.95262945     5.69888962     0.18355909    -1.26554424    -0.55195897
O      -0.21798801     4.62993501     0.70525299     0.35226903     3.14208000    -0.74535511
O      -2.01482254    -0.90424755     5.69792064     0.35543843     0.44575361    -0.22551591
O       0.01132000     1.14098002     0.69263597     0.18841977    -2.12424185     1.58694845
O       3.92521845     2.89470846     9.05374860    -0.80067859    -0.81612964    -1.44846930
O       5.27887698     4.68817298     4.10269698     1.67801207     0.67374344    -0.19856251
O       3.98323744    -0.95214656     8.75310364    -0.38080160     0.70468307     0.03574375
O       5.99575901     1.05166798     3.91597102    -0.34274026    -1.36750472     1.36045860
O       0.03745247     2.61038343     9.08687362     0.35108915    -0.07305432     0.31907274
O       2.15851099     4.50172701     4.26008298    -0.15377182    -0.45666280     0.25607966
O      -0.10610057    -0.83712253     9.15078564    -0.83201932     0.62951659    -3.07859327
O       1.84958302     0.73230702     3.95015598    -0.08910444     1.87633290    -0.42283581
O       1.93901842     0.59911744     7.75218964    -0.25763774     0.53048563     4.13029981
O       3.82501001     2.49811901     3.07193903    -0.48506116    -0.00980413     2.37627279
O       1.74667943    -2.58435955     8.27863363     1.35715962    -1.16235838    -1.15135971
O       4.05040501    -0.88036901     3.34756401    -2.43870871     0.09339767    -0.75559736
O      -2.19295656     0.95841747     7.96382461     1.94040662     0.21550223    -0.34202550
O      -0.06474600     3.08932398     3.09101502     0.77272374    -0.55951879     1.17133230
O      -1.87897257    -3.01941257     8.17141963    -1.66656963     0.23941350    -0.25828721
O       0.13815701     6.17538701     3.36939702     0.66020092     0.51464300    -0.10338050
O       3.77187045     4.87555247     6.51111664    -0.92128265    -0.56927999     1.06803048
O       5.91453602     6.71369998     1.93875098    -0.13569902     0.16750281    -3.99786584
O       3.67447146     1.29452144     6.17974261    -0.07704931    -0.19069236     0.13300682
O       5.66666997     2.95309100     1.53157602     0.20908733     0.29974626     0.03512000
O      -0.09864753     4.75689442     6.53324064     1.07688459     0.22582213     0.05031214
O       2.04337302     6.54103902     1.60152298    -0.00230011    -0.22192357     0.45781286
O      -0.13709353     0.98093047     6.42365163    -0.17924221     0.17887248     0.76569152
O       1.94526700     3.05628300     1.72232399    -0.02025259     0.29839977    -1.16539485
