# total energy = -39023.26391043 eV

CRYSTAL
PRIMVEC
        5.93200024     0.00000000     0.00000000
        0.00000000     9.29399984     0.00000000
        0.00000000     0.00000000     9.29399984
PRIMCOORD
46 1
Ti      4.51775700     6.81933302     7.04755298    -1.81043859     3.71609262    -3.29900863
Ti      4.37458101     7.06016402     2.33334702     0.56956307     2.08170319    -0.34968456
Ti      4.77447401     2.38845501     6.55476302    -1.69663330    -0.19106183    -0.20746702
Ti      4.41155700     2.30655901     2.31451101    -0.97000842    -0.55035795     4.66446340
Ti      1.44029098     6.71753201     7.32882403     5.67364517     4.17216304    -3.66628057
Ti      1.40972200     6.93021602     2.12069000     0.09121635     1.89168291    -1.28598606
Ti      1.66684499     2.04037201     7.21044300     0.59172033     1.96350516    -0.20461258
Ti      1.38569598     2.56457298     4.43637399     2.57778719    -1.35262034    -1.88362867
Ti      2.87891400     4.99680503     4.39870101    -0.05341289    -0.13779498     0.82584481
Ti      3.01711002     4.81336801     9.18168101    -0.18770474    -1.23120226     1.89066887
Ti      2.85174102     0.00597399     4.83216999     2.60801746    -1.71149196    -0.00526639
Ti      3.03528101     9.21419102     8.75348899    -4.39589564    -0.43170252     2.04772348
Ti      5.74160999     5.10431199     4.41578799     0.33573555    -0.43375066     0.70881972
Ti      5.91365700     4.66911900     8.81359199    -0.37769674    -1.33730478     2.18977878
Ti      0.07761199     9.13706799     4.54791899    -2.36892869    -2.06552580     1.82413178
Ti      5.75417901     0.19546299     0.24493900     2.43602962    -1.36546377    -0.59882352
O       4.13568902     5.58760899     5.66149399     2.14765278     0.10534353    -1.18256725
O       4.64649000     5.70879502     0.39607801    -0.00854146    -0.79615499     0.73515863
O       4.64910901     0.87146100     5.45864098    -0.31822761     0.74693480    -0.32555500
O       4.26694598     0.86772998     1.25039298     0.56992277     0.34038590    -2.77971245
O       1.51998503     5.68618201     5.54325298     0.10340518    -0.76078354    -1.35958083
O       1.33686102     5.90098601     0.48183901     0.84575056    -1.50479473    -1.34233206
O       1.32316400     0.96871097     5.70294698     0.12484176    -1.99354029    -2.45172467
O       1.52962600     0.58489099     0.54336502     0.01823710     1.90633872     0.25656199
O       4.44387301     8.23468102     8.42522198     2.40649354    -0.51038525     0.28839998
O       4.21756099     8.34067602     3.82414702     1.59994924    -0.71851021    -0.52179092
O       4.46758301     3.51774398     8.28042400     0.11267452     0.79199443     0.13240209
O       4.34160300     3.92307798     3.77582298     1.20035004     0.12593911    -1.14567114
O       1.37585402     8.34439100     8.06048301     0.68552038     0.62213161     1.70940371
O       1.41766400     8.51373698     3.52588399     1.00502300    -0.22895142     0.67814517
O       1.76303000     3.78309700     8.15263098    -0.99380939    -1.08449994     1.08995711
O       1.38247303     4.15406898     3.61249300    -0.01164582     0.13720260    -0.85118459
O       3.14310500     5.91753301     7.84864002    -1.23278220     1.06878767    -1.12864632
O       2.95093100     5.97816900     2.55948600    -0.86321324    -4.30642173     3.15614189
O       3.25669698     0.94793802     7.27420701    -0.84607709     2.32335278     1.74843025
O       2.93332702     1.61474601     3.40732400     0.39582868     0.28358276    -0.17942836
O       0.03814500     5.78516398     7.39943601    -3.41035312    -3.29169307     0.54276933
O       5.90989900     5.69474198     2.64292900    -0.82721881     1.97531501     1.33709215
O       0.02073100     1.51894398     7.81066902    -0.56446045    -0.37401363     0.94931077
O       2.96925102     7.86133398     6.12797098     0.97693703     0.48812874    -0.33537174
O       2.93578003     7.88928899     1.56790298     0.04088081     1.71305442    -2.68330633
O       2.86613702     3.09670701     5.54132101     1.09455502    -0.11065801     2.26896030
O       0.37408498     7.69110602     5.91013898    -2.97700021     1.32771379    -0.72441064
O       5.79477701     8.09106099     1.49412302     0.41079019    -0.46123062    -0.51988265
O       0.37899098     3.21388400     5.83632600    -2.76699320     0.81570978     1.63462572
O       0.09478099     1.95739199     3.30066398    -1.94148545    -1.64714828    -1.64686700
