# total energy = -19518.96252097 eV

CRYSTAL
PRIMVEC
        7.60600008     0.00000000     0.00000000
        0.00000000     7.60600008     0.00000000
       -1.89786986    -1.89786986     4.85670466
PRIMCOORD
23 1
Ti      3.81553800     6.55542100     1.20914901    -0.51224133     0.53690593     0.43246563
Ti      3.76666102     2.84291101     1.21982299     0.31787306     0.04762199     0.97400057
Ti      0.00836597     6.70553900     1.25623800     0.41329007    -0.10022215    -0.61737815
Ti     -0.03509800     2.92168602     1.13357101     0.01550453    -0.55386288    -0.64673399
Ti      5.68017421     2.88343021     3.67240280    -0.66955742     0.07681019    -0.68568236
Ti      5.75220624    -0.94359379     3.61866183    -1.33626477    -0.32563445     0.66209016
Ti      1.96694025     2.86025521     3.64109382     0.92912118    -0.45438660    -0.61163713
Ti      1.89592424    -1.00059978     3.71803079     0.75567758     0.15837410    -1.34362713
O       3.68737502     4.74834900     0.70705701    -0.03612581    -0.34807710     1.48568474
O       3.74799900     0.91230200     0.69267302     0.18996808     0.26887167     1.51814802
O       0.00419701     4.78361899     0.75838498     0.31268046     0.51858219     0.28874348
O      -0.04382101     0.97678098     0.86349000     0.24511518    -1.23337818    -0.92633230
O       5.72885021     4.68360020     3.88554481     0.63173905     1.52873428     1.20473069
O       5.73168220     0.95067021     4.02596279     0.40822706    -0.26900922    -0.34799354
O       1.87858924     4.67887322     3.99494184    -0.38982155     0.94888834     0.25720631
O       1.83743121     0.97457320     4.15453979    -0.21172040    -0.56997959    -1.19292212
O       3.84106625     2.98867420     3.32703283    -0.99671576    -0.91071362    -1.34918586
O       3.83808920    -1.01617775     3.29385083    -0.57376219     0.09802309    -0.73644007
O      -0.04781577    -1.15460078     3.24002980     1.30025569     0.83978534    -0.79700885
O       5.69175599     6.62890800     1.52364402     0.27597357     0.16412720     0.76850148
O       5.79595999     2.86551698     1.60723699    -1.40598052    -0.01135142     0.52058842
O       1.95557903     6.72407698     1.58463800    -1.00280388    -0.15431741     0.64917499
O       1.75688101     2.88332200     1.66917200     1.33956838    -0.25579144     0.49360700
