# total energy = -19933.56834213 eV

CRYSTAL
PRIMVEC
        6.17855481     0.00000000     0.00000000
        0.00002331     3.94551028     0.00000000
        0.00000000     0.00000000     9.43637700
PRIMCOORD
24 1
Ti      2.23944258     2.33810572     3.50082858    -0.36865956     2.34552650    -2.83362362
Ti      3.93913513     1.60740451     5.93554852     0.36865956    -2.34552650     2.83362362
Ti      5.32861368     1.60740584     1.21732227    -0.36807001    -2.34604072     2.83722213
Ti      0.84996408     2.33810455     8.21905489     0.36807001     2.34604072    -2.83722213
Ti      2.23943113     0.36535063     1.21736012    -0.36910359     2.34568796     2.83543084
Ti      3.93914659     3.58015970     8.21901708     0.36910359    -2.34568796    -2.83543084
Ti      0.84995258     0.36534920     5.93551067     0.36777176     2.34592682     2.83569027
Ti      5.32862514     3.58016113     3.50086638    -0.36777176    -2.34592682    -2.83569027
O       1.95555970     1.38928120     4.81531098     2.53887198    -2.05869489     3.16882823
O       4.22301806     2.55622898     4.62106613    -2.53887198     2.05869489    -3.16882823
O       1.13377003     1.38929713     0.09715279    -2.53919877    -2.05891344     3.16923549
O       5.04480779     2.55621310     9.33922401     2.53919877     2.05891344    -3.16923549
O       4.22300661     0.58347379     0.09712217    -2.53906533     2.05851774     3.16870019
O       1.95557116     3.36203639     9.33925463     2.53906533    -2.05851774    -3.16870019
O       5.04479628     0.58345790     4.81534155     2.53873340     2.05957112     3.17017343
O       1.13378138     3.36205232     4.62103551    -2.53873340    -2.05957112    -3.17017343
O       0.22449528     2.39988302     2.54900085     1.71181027    -0.22726838     2.09599339
O       5.95408248     1.54562716     6.88737621    -1.71181027     0.22726838    -2.09599339
O       3.31377980     1.54559048     2.16921767     1.71196505     0.22787490    -2.09849430
O       2.86479792     2.39991975     7.26715923    -1.71196505    -0.22787490     2.09849430
O       0.22448378     0.42712782     2.16918755     1.71134593    -0.22719536    -2.09810092
O       5.95409394     3.51838235     7.26718935    -1.71134593     0.22719536     2.09810092
O       2.86478646     0.42716455     6.88740628    -1.71219979    -0.22775174    -2.09693749
O       3.31379125     3.51834562     2.54897073     1.71219979     0.22775174     2.09693749
