# total energy = -19072.52503737 eV

CRYSTAL
PRIMVEC
        7.60600008     0.00000000     0.00000000
        0.00000000     7.60600008     0.00000000
       -1.89786986    -1.89786986     4.85670466
PRIMCOORD
22 1
Ti      3.92920802     6.52772000     1.31298898     0.37461193     0.98998564    -0.26825486
Ti      3.58418498     2.63439300     1.22246401     2.23419152     1.27713581     1.29336539
Ti      0.05460199     6.81475002     1.10256599    -0.31744728    -0.98103434    -0.81638238
Ti     -0.15030401     2.67075001     0.93738199    -2.03250563     2.81997877     3.12257895
Ti      5.82058922     2.91856922     3.67726282    -1.30626667     1.23517333    -2.19221541
Ti     -1.34417075    -0.56736776     3.68218882    -0.16006949    -4.44858039    -1.30450032
Ti      1.85673623     2.92894724     3.78029982     1.10572055    -0.77528559     0.83613051
Ti      1.75234924    -0.95187578     3.87647281    -0.24364503     0.36683742    -2.14536218
O       3.83358998     4.76617000     1.02221402    -1.12242630    -0.20071530    -1.10251876
O       4.09928802     0.87645802     0.86715900    -1.08640693     0.00937630     0.55115191
O      -0.21553299     4.54394302     0.65824898     1.02845759     1.63513891    -0.31419458
O       7.03705802     0.96362600     0.54601599     0.65557010    -1.56592402    -0.32516599
O       5.72770120     4.78620222     3.98567679     0.76498935     0.00411917     0.64784162
O       5.40071020     0.93844225     3.66000180     0.59493704     0.91481453     1.03639870
O       2.20725324     4.77096424     4.19056480    -0.89280176     0.14555380     0.01906936
O       1.80769420     1.07977925     4.10390981    -0.29609349    -2.09412985     0.42391722
O       3.68514221     2.77242020     3.19163183    -2.50294080     0.48406640    -0.32818447
O       0.09207922     3.01966621     3.10402384    -0.44051267    -0.44944365    -0.16237962
O       5.87265301     6.55170501     1.80425502    -0.11092772     0.39548441     1.20232619
O       5.42048598     2.82578201     1.63567799     2.20657143     0.23371259     0.30715567
O       1.85669400     6.76342300     1.92635098     0.46594757    -0.39025992    -0.35673350
O       1.61220803     2.27562601     1.05116198     1.08104695     0.39399599    -0.12404343
