# total energy = -19518.11461359 eV

CRYSTAL
PRIMVEC
        7.60600008     0.00000000     0.00000000
        0.00000000     7.60600008     0.00000000
       -1.89786986    -1.89786986     4.85670466
PRIMCOORD
23 1
Ti      3.72922199     6.63277200     1.10010399     0.87833750     0.01569068     2.22954270
Ti      3.76291899     2.73805998     1.13534101     0.68056072     0.40946324     0.74731327
Ti     -0.01257399     6.76216801     1.20629902    -0.83989590    -0.11713539    -1.07989458
Ti      0.00754099     2.89316797     1.17441302    -0.29354424    -0.07932165     0.42736173
Ti      5.70491425     2.93075824     3.68613479    -1.40492225    -0.11915396     1.26528276
Ti      5.72019922    -0.86707777     3.56444482    -1.31685474    -0.43665730     0.04728415
Ti      1.98033621     2.79753120     3.71258783     1.40048735    -0.84391325     0.53743404
Ti      1.87611623    -1.04845878     3.55862181     1.26274482     0.99132519     0.11895419
O       3.91649898     4.69585399     0.90663901    -1.27544813    -0.67748002    -0.08838299
O       4.02964999     0.88200301     0.65358201    -0.50211915     0.46398762     0.47929109
O       0.09330300     4.74797302     0.99646902     0.52624845     0.81179938    -0.72355266
O      -0.15004302     1.06808702     0.72927298     0.16166408    -1.65550849     0.00073636
O       5.64490624     4.79069324     4.01832179     0.69138609    -0.02344256     0.54316246
O       5.66875022     0.98163322     4.10516480     0.92366915     0.21677467    -0.85185204
O       1.72227520     4.64782120     4.09257483    -0.29695378     0.50501473    -1.57195223
O       1.97297520     0.88348624     4.10238980    -1.21591962    -0.00781924     0.33070390
O       3.81031523     2.66552021     3.62316079    -0.20797635     0.83178175    -1.21447903
O       3.77991722    -0.94756479     3.17183981    -0.33457521    -0.32282038    -0.53516967
O      -0.00301779    -0.97833676     3.15456079    -0.11918070     0.27964125     0.53133795
O       5.70117201     6.60091198     1.48969100    -0.08940295     0.46332479     0.96103732
O       5.73306299     2.81242902     1.89557498     0.31237501     0.18817834    -1.60170299
O       1.85180901    -0.52442497     1.55151600     0.83061627    -1.30560975     0.41898893
O       1.87768699     2.65489798     1.82782299     0.22870331     0.41188059    -0.97144464
