# total energy = -19959.75759057 eV

CRYSTAL
PRIMVEC
        7.60600008     0.00000000     0.00000000
        0.00000000     7.60600008     0.00000000
       -1.89786986    -1.89786986     4.85670466
PRIMCOORD
24 1
Ti      3.85278001     6.47952603     1.19012101     1.08106649     0.92713912     0.75057934
Ti      3.85942198     2.65093502     1.13239301    -0.43980793     0.18342874     2.76931464
Ti     -0.00482599     6.72852001     1.15881801    -0.89365048    -0.34995195    -0.27115867
Ti     -0.04353203     2.86604103     1.23756302     0.11102182     1.07441710     0.03460732
Ti      5.67618622     2.86985825     3.63714981    -2.74077667     1.29320418     0.17863594
Ti      5.72510622    -0.72241177     3.71070179    -0.36476383    -1.74844464    -1.47865612
Ti      1.78608720     2.74000820     3.68470580     2.20931403     0.54707208    -1.18014116
Ti      1.91576320    -0.97870676     3.62218880     0.44052244    -0.57953458    -0.36905757
O       3.96674500     4.53911100     0.77883699    -0.72272785     2.46791954     0.17088869
O       3.95157301     0.84135399     0.72250898    -0.88717104    -1.42788941     0.00023423
O      -0.03029900     4.83515900     0.76060800     0.58329405    -0.38984418     0.58037045
O      -0.07029300     1.11453503     0.78435202     1.08178589    -1.59210172     0.12131986
O       5.40663122     4.86373224     4.10370380     1.51876611     0.14467217     0.00539675
O       5.43545021     1.04223920     4.08276383     1.17957063     0.62317187     0.57475516
O       2.06782223     4.60445624     4.01042181    -1.07796420     0.70217573     0.68105900
O       2.00652123     0.79494520     4.11813880    -0.51289748     1.75394372    -1.23612644
O       3.85836521     2.87731123     3.23528482    -0.09382010    -0.47186831    -0.41829730
O       3.90258025    -0.71229078     3.16563584    -2.19854290    -1.25414653    -0.51952835
O      -0.05024877     2.84798021     3.21835983     0.49470229     0.12440313     0.34257751
O       0.00144820    -0.61397579     3.13371481    -0.19446906    -0.89646199     1.48481031
O       5.69911701     6.72880698     1.71492398     0.17093677    -0.60370553    -1.03505273
O       5.69087401     2.59774398     1.54209802     0.87713345     1.06819374     1.13050599
O       1.85153500     6.85745902     1.72187102     1.49141239    -1.15967800    -1.66853936
O       1.96307900     2.83090202     1.73455201    -1.11293481    -0.43611428    -0.64849699
