# total energy = -19958.55287172 eV

CRYSTAL
PRIMVEC
        7.60600008     0.00000000     0.00000000
        0.00000000     7.60600008     0.00000000
       -1.89786986    -1.89786986     4.85670466
PRIMCOORD
24 1
Ti      3.91479699     6.54996999     1.29020198    -1.88343738     0.41690762    -2.82185516
Ti      3.95159402     2.86365999     1.20286000    -0.60290360    -0.42636877     0.43861879
Ti     -0.16627601     6.71372400     1.28714402     2.56104467    -2.77986594    -1.31383703
Ti     -0.05776800     2.72107699     1.20309501     1.32695686     3.21989524     2.04035958
Ti      5.64008120     2.83502124     3.72262580     1.47311539     0.70231123     1.00441365
Ti      5.56964421    -0.89984178     3.66589879     1.05925941    -0.39012777     0.84608789
Ti      1.91530620     2.91986624     3.52289282    -0.60338697     1.58654659     0.35497769
Ti      1.83624723    -0.78179779     3.56611681     0.26113650    -1.55010324     0.55768174
O       3.93323998     4.75239800     0.60329202     0.28432221     0.80178828     3.05150926
O       4.08729697     0.94148502     0.69051397    -1.00289181     0.09243736    -0.52462762
O      -0.26635798     4.58459399     0.90374198     1.01487187     0.97442583    -0.49269785
O      -0.20364497     0.89161398     0.80606300     0.64714999     0.63380056    -0.59232608
O       5.53400122     4.63438121     4.22650779     0.44091247     2.03714390    -0.25488204
O       5.61585721     0.98738522     3.96048880     0.48118908    -3.55263468     1.03670337
O       2.22972422     4.66852024     3.66766381    -1.10567736     2.42516567     1.87973808
O       1.97059221     1.06813724     4.02584182    -0.15249861    -3.70059118     0.00556541
O       3.92495725     2.83957624     3.21480879    -1.08200829    -0.47102833    -1.15756944
O       3.77981721    -0.92850779     3.14738779     1.32851212    -0.00587317     1.10529375
O       0.03056025     2.77572523     3.23456684    -0.22115301    -0.02813945    -0.04989485
O      -0.08222578    -1.20315877     3.18919380     1.08581892     0.87415843     1.17291044
O       5.73614899     6.82193202     1.72451902    -1.90679843    -0.42003125     0.05706591
O       5.81417602     2.86086303     1.80846198    -1.95503183    -0.32232698    -1.87202322
O       2.05564401     6.64362500     1.63868202    -1.75301324     0.67401726    -0.55712407
O       1.97987302     2.84950900     1.72516202     0.30451154    -0.79150772    -3.91408821
