# total energy = -39034.76293512 eV

CRYSTAL
PRIMVEC
        5.93200024     0.00000000     0.00000000
        0.00000000     9.29399984     0.00000000
        0.00000000     0.00000000     9.29399984
PRIMCOORD
46 1
Ti      4.51450701     7.00038397     6.81411400    -0.99487845     1.28189878     1.25014615
Ti      4.35747398     6.80285502     2.37728397     0.81887558     0.66287204     1.40770907
Ti      4.49012897     2.12768202     7.13823602    -0.24315009     0.94951646     0.27917434
Ti      4.45208902     2.60905202     2.03663803    -0.67188401    -1.38538057     0.92808991
Ti      1.46533202     6.86004199     7.09019001     0.28445513     0.60334403    -1.26223831
Ti      1.47157700     7.21146902     2.13842702    -0.30932774    -0.36914602     1.28201293
Ti      1.47569199     2.43724097     6.80849102     0.59657843     0.06794348     0.21295967
Ti      1.47513403     1.99690999     2.64756200     0.18861903     1.38585649    -0.81539662
Ti      2.89890902     4.68663302     4.81248100    -0.78574896    -0.34045969    -1.13149098
Ti      2.96447101     4.77624300     9.16777498    -0.01151829    -0.25791645    -0.37951605
Ti      3.06424198     9.26176300     4.68446001    -0.85225956    -0.46888197     0.01029367
Ti      2.95125899     9.19658402     9.10681000     0.66669707    -0.03058431     0.36642090
Ti      5.83819601     4.60781598     4.70485000     0.82854241     0.57271036    -1.44759615
Ti      0.05363100     4.72203498     0.04471802    -0.02273139    -0.54411582    -0.28711237
Ti      0.00792300     9.24173401     4.76301002     0.58479943    -0.24409111    -0.63032854
Ti      0.00347299     0.02981199     0.00292101    -0.56323352    -0.31737992     0.48967166
O       4.35506400     5.72827499     5.54917098     0.09415666    -1.81813931    -1.40852540
O       4.38481402     5.69093900     0.88423301     0.31485870    -1.66090498    -0.23182592
O       4.53936998     0.92280400     5.66185700     0.31543565    -0.15738911    -0.81606433
O       4.46828999     0.99336402     0.67227498    -0.35870810     0.78050442     0.60765835
O       1.35382998     5.52249500     5.76773701     0.74062480    -0.94666408    -1.57077466
O       1.48573202     5.62481301     0.96536001    -0.18707045    -0.20906393    -0.65304990
O       1.56867801     1.01789599     5.48525002    -1.17127136     0.11605141    -0.95060224
O       1.58882300     0.71587199     0.88605698    -0.94589686     1.04170623     0.88828176
O       4.48823801     8.39606198     8.19889102    -0.18375604     0.65847108     0.96924969
O       4.42394901     8.42064698     3.75081502     1.07351490     0.39942128     0.30216027
O       4.41719099     3.72828900     8.46664100     0.04054194    -0.44459738     0.79248037
O       4.37836902     3.72033599     3.88255200     0.31867319     0.16093029    -1.37622641
O       1.43750698     8.08823201     8.47541201     0.25310155     1.61850413     0.63893094
O       1.63013602     8.34757702     3.79402800    -1.10629056     1.03686047    -1.02455182
O       1.44264498     3.86220799     8.35816601     0.08909750    -0.28856941     0.63510025
O       1.51111803     3.64004499     3.83458499    -0.65901178    -0.34563070    -0.01468512
O       2.96167198     5.95881498     7.79106702     0.71336415     0.59150667     0.17910414
O       2.80467800     6.01054401     3.18795600     0.78825604     0.77350485    -0.17829501
O       2.82178302     1.41748699     7.73824301     1.15666852    -0.64183115     1.07508790
O       3.19529299     1.48091402     3.05017301    -0.37665724     0.03342950     0.24819382
O       5.80391601     6.05513301     7.81726600     0.22010322    -0.47293763     0.96737304
O       0.03992902     6.10346701     3.41070698    -0.94392405    -0.00677435    -1.27404277
O       0.18879901     1.38125698     7.93632602    -0.82560107     0.66469521    -1.02936056
O       2.91952100     7.98889099     6.08876202    -0.17921496    -0.56312759     0.33115487
O       3.11923498     8.01794600     1.34884000    -1.22185784    -1.50373338     0.95297768
O       3.03126001     3.29164702     6.10653401     0.06021114    -0.02138027     0.38639735
O       0.00978401     7.88838198     5.96954801     0.85143810    -0.30749942     0.63058900
O       5.70443302     7.90674803     1.44142501     1.97242561    -0.06158643     0.17338626
O       5.87216199     3.25443099     6.11284302    -0.68723865    -0.31474428     0.40079271
O       0.17968298     3.13247500     1.48465101     0.33019173     0.32280186     0.07628697
