# total energy = -19959.84058709 eV

CRYSTAL
PRIMVEC
        7.60600008     0.00000000     0.00000000
        0.00000000     7.60600008     0.00000000
       -1.89786986    -1.89786986     4.85670466
PRIMCOORD
24 1
Ti      3.82022503     6.70869200     1.30823898     1.15457564     1.47616215     0.64540473
Ti      3.78623401     2.98227401     1.12170300     1.42434540    -0.87439497     1.76420551
Ti      0.07615300     6.49715001     1.28928301    -1.18959074     0.40165968    -1.43925035
Ti      0.07150899     2.84339002     1.19641901    -1.60371231    -1.06692876    -1.52101583
Ti      5.68461321     2.90086925     3.59520283    -0.62026421    -2.61527671    -1.45170298
Ti      5.70384124    -1.13668078     3.66388982    -2.63411082     2.22012732    -0.00047360
Ti      1.90059825     3.00081321     3.61290481     0.94328359     0.63745384     0.12822328
Ti      1.76532922    -0.87733476     3.68006883     3.38191800    -1.16583039     0.83352033
O       3.75949903     4.96820300     0.75889198    -0.48388488    -3.68903407    -0.91172355
O       3.98615099     0.99275298     0.94030199    -1.21051721     0.41822042    -1.57723482
O       0.19429103     4.65731702     0.66238302     0.15059060     1.40298827     0.71143068
O      -0.00288100     0.92649099     0.79804401     0.40733771    -2.47786637     0.09236332
O       5.37339021     4.62972625     3.93471983     0.90738481     2.17257604     1.89046395
O       5.52872421     0.84513523     4.01606982     1.19471701     0.41090203     0.14489843
O       2.11408322     4.86670124     4.03703381    -1.13135009     0.15230012     0.01368213
O       1.95061725     1.02587424     4.07904080    -1.01491224    -0.06011319    -0.17870999
O       3.78461521     2.96160821     3.21730984    -1.17302769    -0.49119864    -0.66151526
O       3.76332021    -0.84084577     3.21895082    -0.03580725    -0.08167369     0.09496964
O      -0.06027175     3.12043722     3.09792480     1.15611265    -0.20276216     1.09815225
O      -0.04337777    -1.17609776     3.16540983     0.62660713     0.48936827     0.92162204
O       5.66776998     6.32939198     1.67313199     1.45347190     0.61933450     0.07694826
O       5.68529500     2.88063600     1.58708502    -0.55273416     0.29362935    -0.18181280
O       1.94936500     6.38858501     1.71151301    -2.16359980     1.29145711    -0.27325386
O       1.87610099     2.61966202     1.64851699     1.01316723     0.73889933    -0.21919177
