# total energy = -19885.69100418 eV

CRYSTAL
PRIMVEC
        9.16625795     0.00000000     0.00000000
        0.00003002     4.18100147     0.00000000
        0.00000000     0.00000000    13.95032818
PRIMCOORD
24 1
Ti      3.32234528     2.47765762     5.17547226     0.28346706    -0.35603493     2.75140048
Ti      5.84394229     1.70334392     8.77485612    -0.28346706     0.35603493    -2.75140048
Ti      7.90531737     1.70334534     1.79963614     0.28301197     0.35616837    -2.75202783
Ti      1.26097020     2.47765633    12.15069238    -0.28301197    -0.35616837     2.75202783
Ti      3.32233047     0.38715695     1.79969210     0.28346706    -0.35603493    -2.75140048
Ti      5.84395710     3.79384465    12.15063642    -0.28346706     0.35603493     2.75140048
Ti      1.26095540     0.38715539     8.77480016    -0.28301197    -0.35616837    -2.75202783
Ti      7.90533217     3.79384621     5.17552822     0.28301197     0.35616837     2.75202783
O       2.90118898     1.47220168     7.11874574     0.91529995     1.09230376    -2.49507374
O       6.26509859     2.70879979     6.83158264    -0.91529995    -1.09230376     2.49507374
O       1.68201452     1.47221854     0.14362643    -0.91561568     1.09250353    -2.49633949
O       7.48427312     2.70878299    13.80670155     0.91561568    -1.09250353     2.49633949
O       6.26508385     0.61829906     0.14358118    -0.91529995    -1.09230376    -2.49507374
O       2.90120372     3.56270248    13.80674680     0.91529995     1.09230376     2.49507374
O       7.48425838     0.61828219     7.11879099     0.91561568    -1.09250353    -2.49633949
O       1.68202912     3.56271935     6.83153739    -0.91561568     1.09250353     2.49633949
O       0.33304947     2.54312208     3.76833170    -2.15670332     0.65285090    -0.01927994
O       8.83323810     1.63787939    10.18199668     2.15670332    -0.65285090     0.01927994
O       4.91619011     1.63784043     3.20687684    -2.15647681    -0.65288767     0.01921129
O       4.25009746     2.54316110    10.74345135     2.15647681     0.65288767    -0.01921129
O       0.33303473     0.45262135     3.20683232    -2.15670332     0.65285090     0.01927994
O       8.83325284     3.72838019    10.74349586     2.15670332    -0.65285090    -0.01927994
O       4.25008272     0.45266030    10.18204113     2.15647681     0.65288767     0.01921129
O       4.91620485     3.72834123     3.76828719    -2.15647681    -0.65288767    -0.01921129
