# total energy = -19517.51267207 eV

CRYSTAL
PRIMVEC
        7.60600008     0.00000000     0.00000000
        0.00000000     7.60600008     0.00000000
       -1.89786986    -1.89786986     4.85670466
PRIMCOORD
23 1
Ti      3.81830602     6.54209102     1.21789102     0.19598241     1.40737920     0.55508441
Ti      3.69866899     2.78378598     1.29274002     0.58360464    -0.85622704     1.60269698
Ti      0.01784798     6.77226302     1.17158801     0.30136451    -0.48518020     0.27528169
Ti     -0.00761502     2.93129202     1.19607198    -0.21033431     0.01934704    -2.11708544
Ti      5.61291525     2.96056621     3.68034184    -1.45478984    -2.49294795    -2.47742362
Ti      5.79239921    -0.95877578     3.61201881    -0.46415603     1.70551775    -0.22693902
Ti      1.75132724     2.69899924     3.74552282     2.17229321     1.17410601    -1.04817127
Ti      1.89961223    -0.99707175     3.62350979     0.57008372    -0.08969142     0.62805877
O       3.95694802     4.68420600     0.91654600    -1.02219721     0.50855925    -0.36380506
O       3.88265498     0.92891901     0.80963902    -0.24868053    -0.69863121    -0.77210539
O      -0.05613100     4.83330301     0.61346698     0.75145557     0.70851505     3.14308042
O      -0.11613599     0.94980998     0.67991598     0.67589442    -0.53183571    -0.10590764
O       5.77202525     4.74869625     3.80159582     0.62601783     2.32850861     0.93164883
O       5.67974023     1.06857122     4.09796582     0.84135320    -1.52801103    -0.52823745
O       1.77395021     4.67567021     3.80902081    -0.21917454     0.82549026     1.69600903
O       2.17555224     0.98460222     4.10546284    -1.44211893    -1.46193983     0.48109472
O       3.70148421     2.88392224     3.28989581     0.86334874     0.37406351    -1.39087708
O       3.89509921    -0.72600277     3.07113981    -0.27181558    -1.12303000     0.41684797
O       0.07445423    -0.65561579     3.17187283    -0.10701989    -0.27874240     0.78617628
O       5.88367202     6.59046899     1.67426401    -1.76600554    -0.05713070    -1.06251443
O       5.91170201     2.69474201     1.66220803    -1.83043972     0.50058626     1.20017752
O       1.89845799     6.61538498     1.71333798     0.81258229    -0.20028438    -1.65444302
O       1.76992100     2.62675998     1.70030101     0.64275160     0.25157842     0.03135256
