# total energy = -39040.57654106 eV

CRYSTAL
PRIMVEC
        7.60629642    -0.00000847    -0.00005503
       -0.00000847     7.60629642    -0.00005503
       -3.80314186    -3.80314186     9.70738094
PRIMCOORD
46 1
Ti      1.90146013     4.75417436     6.13023352    -0.00006222    -0.00057361     0.15693480
Ti      3.77592764     6.65560671     1.22654171    -0.01990909     0.00024040     0.04471587
Ti      1.90146319     0.95102615     6.13023936    -0.00013293    -0.00057310     0.15709009
Ti      3.77593183     2.85246334     1.22656926    -0.01990934     0.00009410     0.04471587
Ti     -1.90161787     4.75381479     5.89993001    -0.00073662    -0.00012830    -0.03435021
Ti      0.02699530     6.65565329     1.22649151     0.02022379     0.00053170     0.04451995
Ti     -1.90161787     0.95066653     5.89997708    -0.00071528    -0.00012856    -0.03444997
Ti      0.02699941     2.85252298     1.22651913     0.02022456     0.00011570     0.04451995
Ti      3.74746877     0.95078312     8.53048824    -0.00538826    -0.00000437    -0.04122740
Ti      5.70489592     2.85237149     3.56293536    -0.00019412     0.00001928     0.03830842
Ti      3.74749783    -2.85236505     8.53052946    -0.00555718    -0.00000463    -0.04141329
Ti      5.70490030    -0.95077045     3.56296277    -0.00019463     0.00004397     0.03830868
Ti      0.05560156     0.95078305     8.53059665     0.00721606     0.00005708    -0.04191054
Ti      1.90173228     2.85222340     3.67511842    -0.00052296     0.00011467     0.09021284
Ti      0.05558802    -2.85236516     8.53062197     0.00752408     0.00005656    -0.04192365
Ti      1.90173660    -0.95092915     3.67514596    -0.00052322     0.00009307     0.09021233
O       1.90158004     2.85230641     5.73596740    -0.00003857     0.00012881     0.01809106
O       3.77612589     4.75393317     0.79748789     0.01195666     0.00007919    -0.05734719
O       1.90158428    -0.95082863     5.73599493    -0.00003831    -0.00029696     0.01809055
O       3.77614494     0.95078497     0.79750719     0.01185202     0.00007945    -0.05733819
O      -1.90148619     2.85229827     5.55306811    -0.00017869     0.00000720     0.08747513
O       0.02696263     4.75394468     0.79740801    -0.01187310     0.00012650    -0.05669079
O      -1.90148196    -0.95085001     5.55309556    -0.00017869     0.00003137     0.08747539
O       0.02697237     0.95079650     0.79744300    -0.01185845     0.00012624    -0.05679903
O       4.05044371     2.85235809     8.87179316    -0.00936088    -0.00001646     0.00218055
O       5.70468135     4.75391919     3.96127423     0.00002545    -0.00007610    -0.04475315
O       4.05044787    -0.95078638     8.87182062    -0.00936088     0.00014141     0.00218081
O       5.70467154     0.95077096     3.96133635     0.00006993    -0.00007585    -0.04496630
O      -0.24726039     2.85235311     8.87184169     0.00875975     0.00009076     0.00234588
O       1.90158171     4.75389688     4.12693878    -0.00002263    -0.00002571     0.04561859
O      -0.24725613    -0.95078224     8.87186920     0.00875975     0.00002623     0.00234639
O       1.90158922     0.95074868     4.12697996    -0.00003368    -0.00002648     0.04544864
O       1.90153136     0.95081759     8.14619316     0.00056333     0.00011159    -0.04431426
O       3.79753294     2.85238171     3.21190720     0.00047565    -0.00003317    -0.04263173
O       1.90154861    -2.85233082     8.14622522     0.00039698     0.00011184    -0.04444513
O       3.79753719    -0.95075084     3.21193460     0.00047565    -0.00010130    -0.04263096
O       0.00565687     2.85239480     3.21191875    -0.00053530    -0.00002365    -0.04266413
O       0.00566117    -0.95073413     3.21194621    -0.00053556    -0.00008433    -0.04266362
O       3.90957611     4.75382521     6.55056414     0.01996180    -0.00008382    -0.02014409
O       5.70474009     6.65550425     1.55947434    -0.00002417    -0.00004474    -0.00956965
O       3.90956710     0.95067692     6.55061525     0.02015720    -0.00008382    -0.02039580
O       5.70474428     2.85233747     1.55950192    -0.00002417     0.00010516    -0.00956991
O      -0.10640448     4.75384433     6.55052174    -0.02032484    -0.00013498    -0.01984301
O       1.90154585     6.65547696     1.68704610     0.00002571     0.00000257    -0.07441084
O      -0.10640465     0.95069600     6.55057065    -0.02045930    -0.00013498    -0.01992786
O       1.90155009     2.85231457     1.68707366     0.00002494     0.00012033    -0.07441110
