# total energy = -19935.98143036 eV

CRYSTAL
PRIMVEC
        6.00781308     0.00000000     0.00000000
        1.26619566     6.26750708     0.00000000
        0.00000000     0.00000000    10.80736859
PRIMCOORD
24 1
Ti      2.92788956     3.71411889     4.00945680    -0.00466115    -1.78835178     0.82331896
Ti      4.34611889     2.55338834     6.79791222     0.00466115     1.78835178    -0.82331896
Ti      5.69720020     2.55339058     1.39418453    -0.15349543    -0.26708964    -0.18758698
Ti      1.57680827     3.71411689     9.41318462     0.15349543     0.26708964     0.18758698
Ti      2.29479188     0.58036558     1.39422786    -0.00466115    -1.78835178    -0.82331896
Ti      4.97921659     5.68714183     9.41314128     0.00466115     1.78835178     0.82331896
Ti      0.94371049     0.58036316     6.79786888     0.15349543     0.26708964    -0.18758698
Ti      6.33029798     5.68714425     4.00950014    -0.15349543    -0.26708964     0.18758698
O       2.34735968     2.20689582     5.51491763     1.67532219     1.86412350    -0.53368845
O       4.92664877     4.06061141     5.29245139    -1.67532219    -1.86412350     0.53368845
O       1.54828497     2.20692106     0.11126793    -0.80265320     0.29409446     0.76416377
O       5.72572354     4.06058623    10.69610078     0.80265320    -0.29409446    -0.76416377
O       4.29355107     0.92685792     0.11123285    -1.67532219    -1.86412350    -0.53368845
O       2.98045738     5.34064931    10.69613586     1.67532219     1.86412350     0.53368845
O       5.09262584     0.92683274     5.51495272     0.80265320    -0.29409446     0.76416377
O       2.18138255     5.34067456     5.29241630    -0.80265320     0.29409446    -0.76416377
O       0.98844966     3.81225302     2.91933998     0.41328159     1.13224740     1.29757094
O       6.28555879     2.45525421     7.88802903    -0.41328159    -1.13224740    -1.29757094
O       3.71820794     2.45519567     2.48437891     0.71074317     1.30205520     0.47223444
O       3.55580051     3.81231156     8.32298993    -0.71074317    -1.30205520    -0.47223444
O       0.35535195     0.67849953     2.48434437     0.41328159     1.13224740    -1.29757094
O       6.91865650     5.58900776     8.32302446    -0.41328159    -1.13224740     1.29757094
O       2.92270280     0.67855801     7.88806351    -0.71074317    -1.30205520     0.47223444
O       4.35130565     5.58894922     2.91930545     0.71074317     1.30205520    -0.47223444
