# total energy = -4983.66914530 eV

CRYSTAL
PRIMVEC
        4.81478586     0.00000000     0.00000000
       -0.00000782     3.20985687     0.00000000
       -2.40742130    -1.60497741     5.33397360
PRIMCOORD
6 1
Ti     -0.00020693     2.40750926     1.33349312    -0.00560706    -0.00916521     9.13002876
Ti      2.40756373    -0.80263014     4.00047976     0.00560706     0.00916521    -9.13002876
O       0.00005067     0.80245550     0.86886058     0.00271200     0.00264412    -3.66943223
O       2.40730602     0.80242356     4.46511235    -0.00271200    -0.00264412     3.66943223
O      -0.00002063    -0.80245846     3.53584727    -0.00240861    -0.00032113    -2.05753635
O       2.40737726     2.40733746     1.79812572     0.00240861     0.00032113     2.05753635
