# total energy = -19915.51876554 eV

CRYSTAL
PRIMVEC
        7.60835640     0.00000000     0.00000000
        0.00002492     3.47039648     0.00000000
        0.00000000     0.00000000    11.57932379
PRIMCOORD
24 1
Ti      2.75767790     2.05655375     4.29584654    -0.23565583     0.15950821     1.82793496
Ti      4.85070309     1.41384278     7.28347741     0.23565583    -0.15950821    -1.82793496
Ti      6.56172588     1.41384396     1.49376912    -0.23739261    -0.15967636    -1.82723304
Ti      1.04665511     2.05655268    10.08555494     0.23739261     0.15967636     1.82723304
Ti      2.75766561     0.32135557     1.49381558    -0.23565583     0.15950821    -1.82793496
Ti      4.85071538     3.14904102    10.08550849     0.23565583    -0.15950821     1.82793496
Ti      1.04664282     0.32135428     7.28343096     0.23739261     0.15967636    -1.82723304
Ti      6.56173817     3.14904231     4.29589299    -0.23739261    -0.15967636     1.82723304
O       2.40810152     1.22198558     5.90884034     3.59639539     0.08393729    -0.29750631
O       5.20027946     2.24841089     5.67048362    -3.59639539    -0.08393729     0.29750631
O       1.39613853     1.22199958     0.11921562    -3.59811751     0.08522567    -0.30022011
O       6.21224251     2.24839695    11.46010800     3.59811751    -0.08522567     0.30022011
O       5.20026723     0.51321265     0.11917806    -3.59639539    -0.08393729    -0.29750631
O       2.40811376     2.95718388    11.46014556     3.59639539     0.08393729     0.29750631
O       6.21223028     0.51319866     5.90887790     3.59811751    -0.08522567    -0.30022011
O       1.39615065     2.95719788     5.67044605    -3.59811751     0.08522567     0.30022011
O       0.27644422     2.11089185     3.12786426    -0.65989033     0.07946949     0.36119925
O       7.33193676     1.35950463     8.45145969     0.65989033    -0.07946949    -0.36119925
O       4.08063211     1.35947230     2.66183453    -0.65792883    -0.07956976    -0.36210350
O       3.52774888     2.11092424     8.91748926     0.65792883     0.07956976     0.36210350
O       0.27643199     0.37569361     2.66179758    -0.65989033     0.07946949    -0.36119925
O       7.33194900     3.09470292     8.91752621     0.65989033    -0.07946949     0.36119925
O       3.52773665     0.37572594     8.45149659     0.65792883     0.07956976    -0.36210350
O       4.08064434     3.09467059     3.12782731    -0.65792883    -0.07956976     0.36210350
