# total energy = -19960.13708546 eV

CRYSTAL
PRIMVEC
        5.93400000     0.00000000     0.00000000
        0.00000000     9.29699974     0.00000000
        0.00000000     0.00000000     4.64899994
PRIMCOORD
24 1
Ti      4.49099900     7.06293601     2.48145802    -1.58874308    -1.39628823    -0.94007280
Ti      4.44785300     2.37037001     2.40483601     0.60601670    -1.62098910    -0.32142607
Ti      1.45951001     6.97947502     2.21804898     1.52954264    -0.11154247     0.86719279
Ti      1.50272702     2.38156502     2.25544599    -0.41906323    -1.64279900    -0.04424459
Ti      2.91965203     4.55151798     0.07108300     1.10105580     1.59029166    -1.43603467
Ti      2.97256901     9.19879403     4.58447302    -0.11482680     1.97112746     1.85268235
Ti      5.90292200     4.69207899     0.05852298    -1.09997516     0.10508103    -0.01578375
Ti      0.02291401     9.26289200     4.57132599     0.31540711     2.14653486     1.49625892
O       4.33511899     5.64001003     0.94312203     1.35531845    -0.79416392    -0.52963922
O       4.36648200     0.93952600     0.76743999     0.63880136    -0.09106388     0.58625879
O       1.52756898     5.44324600     0.93977302    -1.07261784     1.05732774     0.58586721
O       1.52883102     0.92397999     0.83142700    -0.20538571     0.63354062     0.15150360
O       4.47550098     8.50883002     3.71757401    -0.12658265    -1.96333958    -0.81100286
O       4.47205202     3.78184100     3.74469497     0.27711180    -0.24567363    -0.27329320
O       1.46477401     8.30784999     3.88397400    -0.17214133    -0.77109495    -1.30950832
O       1.46990798     3.66044498     3.77567502    -0.19511878     0.07993408    -0.59265595
O       2.88295898     6.14341100     3.34245899     0.52966390     0.04031825    -0.83940044
O       3.04801302     1.37097400     3.10107701    -0.96603349     0.45492885     0.11696930
O       5.92731401     6.05070698     3.17515701    -0.01752233    -0.13042774     0.76630010
O       0.03645798     1.22486102     3.10762002     0.36393336     1.94904733    -0.67218766
O       2.94947799     7.92558801     1.52713199    -0.02647209    -0.00425698    -0.62412061
O       3.11640298     3.21457902     1.31579002    -1.15086503    -0.63121609     1.37247055
O       5.91996702     7.96512898     1.46455302    -0.11792318    -0.70629901     0.29388106
O       5.92250902     3.23337100     1.38089999     0.55642010     0.08102269     0.31998522
