# total energy = -4952.42081559 eV

CRYSTAL
PRIMVEC
        4.67216738     0.00000000     0.00000000
       -0.00000662     2.51578274     0.00000000
       -2.33610963    -1.25794798     5.04034226
PRIMCOORD
6 1
Ti     -0.00019998     1.88692374     1.26008536    -0.02262417    -0.02382951    37.84957437
Ti      2.33625076    -0.62908883     3.78025649     0.02262417     0.02382951   -37.84957437
O       0.00004960     0.62893583     0.82103051     0.02148183     0.02279849   -27.45004136
O       2.33600109     0.62889898     4.21931145    -0.02148183    -0.02279849    27.45004136
O      -0.00001908    -0.62895289     3.34120164    -0.00150641     0.00016866    -0.60251974
O       2.33606966     1.88678770     1.69914032     0.00150641    -0.00016866     0.60251974
