# total energy = -4981.43990147 eV

CRYSTAL
PRIMVEC
        2.69091096     0.00000000     0.00000000
        1.03784730     4.08652312     0.00000000
       -0.00000668    -0.00005525     4.25010333
PRIMCOORD
6 1
Ti      1.86437568     2.04323385     2.12505171     0.00000000     0.00000000     0.00000000
Ti      0.00000000     0.00000000     0.00000000     0.00000000     0.00000000     0.00000000
O       1.54771525     0.79639235     0.82828256    -6.48049286     3.00873509     3.55234363
O       2.18103607     3.29007536     3.42182086     6.48049286    -3.00873509    -3.55234363
O       0.31665760     1.24681914     2.95333513     6.48013985    -3.00824555     3.55167823
O       0.72118292     2.83964864     1.29676829    -6.48013985     3.00824555    -3.55167823
