# total energy = -19517.17177205 eV

CRYSTAL
PRIMVEC
        7.60600008     0.00000000     0.00000000
        0.00000000     7.60600008     0.00000000
       -1.89786986    -1.89786986     4.85670466
PRIMCOORD
23 1
Ti      3.87210302     6.50443800     1.26087598    -1.24293986     0.56771907     0.23941967
Ti      3.86075598     2.80007199     1.15420099    -0.25958021     0.03392495    -0.24533681
Ti     -0.00608702     6.62454800     1.39647400     1.10491451     0.33742425    -1.99512794
Ti      0.07068300     2.84544301     1.01384101    -1.72369237     0.07682742     1.04356771
Ti      5.47917724     2.94060723     3.67842484     1.49534490     0.16363818    -1.11454689
Ti      5.73977221    -0.97712579     3.61960583    -1.53662577    -0.94044355     1.61602455
Ti      1.87068021     2.92011823     3.51634584     0.13680665    -0.58312590     1.76226587
Ti      1.93090323    -1.01252579     3.73879280     0.78931097     0.98184913    -0.13933944
O       3.63345498     4.71461999     0.69096198     0.04258211     0.39912998     0.21061585
O       4.07399499     0.83470102     0.85957801    -0.46468825     0.32812096    -0.33050746
O       0.13859999     4.83505898     0.65713601     0.09886769    -0.37632685     2.38375779
O      -0.02817800     0.84756902     0.74497901    -0.18241804     0.42209996     0.70237139
O       5.76632622     4.69120220     4.04503582     0.49425749     2.00680281    -0.45149462
O       5.62351822     1.02330021     4.10145781     0.25609945    -0.75958797    -2.37354485
O       1.48687822     4.70536420     4.14502079     0.60307818     0.13163230    -1.30155435
O       2.04081625     0.91188025     4.12897884    -0.92158502     0.36025257    -1.24690991
O       3.75379021     3.10111421     3.38587179    -2.27150647    -0.43775696    -1.64033460
O       3.89803620    -0.78648376     3.28221279    -0.65484428    -1.18120148    -0.13047042
O      -0.06017576    -0.74069479     3.30652880     1.74492069    -0.15108373    -0.41313015
O       5.72184199     6.36514098     1.66612801     0.67532621     0.09033163    -0.31125041
O       5.59435102     3.06895198     1.45584599     2.48550666    -0.40982140     1.67475886
O       2.03164302     6.73747602     1.82639897    -1.68425369    -0.63734020    -0.25654965
O       1.82682602     2.85624998     1.30255102     1.01511870    -0.42306464     2.31731608
