# total energy = -39032.62638256 eV

CRYSTAL
PRIMVEC
        5.93200024     0.00000000     0.00000000
        0.00000000     9.29399984     0.00000000
        0.00000000     0.00000000     9.29399984
PRIMCOORD
46 1
Ti      4.43054901     6.86117099     7.10567098     1.85427309     0.14763923    -0.12139417
Ti      4.57845802     6.94826102     2.29484499    -1.08937707     0.50876365     0.78420192
Ti      4.32948198     2.48450301     6.91511600     0.96889590    -2.35245614     0.62686038
Ti      4.23670599     2.38252002     1.93762198     1.04260149    -0.56526907     0.89918067
Ti      1.47556599     7.07896002     6.83181303    -0.50089582    -0.79226054     0.44571401
Ti      1.57487600     6.95913402     2.34973802     0.33481406     0.22351302    -0.50033532
Ti      1.44391998     2.37026698     7.00820199    -1.00950932    -0.67086971     1.84191585
Ti      1.31573801     2.05104202     2.54565802     0.38684473     0.48882680    -1.20324870
Ti      3.17621203     4.68784002     4.71250301     0.79814836     0.78819356    -1.24425755
Ti      3.00481501     4.81012098     9.11688300    -2.63752370    -0.12298311     1.16569155
Ti      2.87792000     9.24902602     4.65044502     1.91743689     0.01776222    -0.03377942
Ti      2.86772900     9.22582001     0.06805902     0.94496895     0.48258030     0.51383130
Ti      0.26698199     4.57830202     4.59159400    -0.63918882     0.04702009    -0.30673863
Ti      5.86835900     4.54389502     0.04028103     2.11452847     0.75191426    -0.67939575
Ti      5.88390501     9.26242902     4.83233600    -1.84773503    -0.70035333     0.25633034
Ti      0.00107799     9.14154800     9.17042198    -0.67642201     1.09814094     0.47032025
O       4.40123498     5.85800401     5.52700401     0.46092621    -2.20933048    -0.91314331
O       4.46299202     5.69874097     0.71012502     0.01192607    -0.55400480     1.08248677
O       4.41739600     0.86280001     5.67324802     0.15286679     1.18298609    -0.17502148
O       4.61377097     0.97807000     0.66968302    -1.80988298     0.49662419     1.80245943
O       1.62733498     5.70802502     5.39768002    -1.22647760    -0.55817179     0.56703722
O       1.55133798     5.72978399     0.95231299     0.07413804    -1.56586848    -1.11026395
O       1.39000602     0.80924002     5.68089299     0.59736159     1.65717996    -0.11458023
O       1.31233201     0.71868700     0.92745600     1.58708163     1.13430249     1.15607897
O       4.48283099     8.22703700     8.44713801    -1.03737469     0.59807893     0.19954905
O       4.40846100     8.38285398     3.82348301     0.40220527     0.42951091     0.62281218
O       4.40861599     3.84435800     8.32493400     0.18655983    -0.60771645     0.32381642
O       4.50464298     3.76976501     3.63983199     0.22202950     0.18387328     0.31336720
O       1.48751302     8.07022098     8.61072300     0.67663901     1.03394612    -0.86065756
O       1.45662102     8.35800001     3.95444798    -0.63229441    -0.32445097    -1.41582939
O       1.37771699     4.03964202     8.11738602     0.93974215    -1.28579657     2.00549335
O       1.73243900     3.63695697     3.88533701    -2.30994139    -0.49247082    -1.39918895
O       2.92734198     6.01693298     7.85763900    -0.26915166     1.35595506    -1.44250305
O       2.94920700     6.08158801     3.19595198     0.57645645    -0.52502615     0.42612245
O       2.96156302     1.63185902     8.15225600    -0.43060569    -0.52059382    -1.42386383
O       2.95905298     1.36208197     3.07828799     0.16698807     0.39540445    -0.14852960
O       0.06269099     5.95373101     7.84298201    -0.89957405     1.47098883    -0.91662870
O       0.09865600     6.07485101     3.09978401     0.04502106    -1.99640630     1.94457798
O       0.09099298     1.60447997     7.94427098    -0.72459756    -1.58814376     0.22267279
O       2.98562201     7.99818700     6.08977301    -0.49391656    -0.89590251     1.37747854
O       3.20534498     8.03474600     1.54006497    -1.84405732     0.41718813    -0.81588127
O       2.86221100     3.18375502     6.05047599     1.59864620     1.12843626    -0.73323056
O       5.87692898     7.94960498     6.24601101     0.49541114     0.11304014    -0.45233897
O       5.85819801     8.03108902     1.72236199     1.34804737     0.65922030    -2.10463358
O       5.86738400     3.24817003     6.09030298     0.08309269     1.22627397    -1.63085108
O       0.03600601     3.12513499     1.36451000     0.09087439     0.29071243     0.69829645
