# total energy = -19075.87883391 eV

CRYSTAL
PRIMVEC
        7.60600008     0.00000000     0.00000000
        0.00000000     7.60600008     0.00000000
       -1.89786986    -1.89786986     4.85670466
PRIMCOORD
22 1
Ti      3.91392099     6.70551397     1.30148202    -0.15553380    -0.59002443    -1.43951260
Ti      3.77358901     2.91579702     1.21299798     0.28482357     0.64920250     0.52125614
Ti      0.00115599     6.58015199     1.03371199     0.68889829     0.11746166     0.11693253
Ti     -0.05631901     2.79941301     1.09043201    -0.71655720     0.14507892     0.98991391
Ti      5.66283222     2.71070422     3.57694880    -0.22841380     1.30521355    -0.81489757
Ti      6.13595722    -0.90903576     3.71178084    -0.84471749    -1.07566126    -0.39989565
Ti      1.81916724     2.84734922     3.65044179     0.25117836     0.67502642    -0.17759233
Ti      1.54273822    -0.93702580     3.82729679     0.74064176    -0.08605537    -1.41646239
O       3.77326298     4.83936998     0.87496902    -0.16559427    -0.88101968    -0.45208135
O       4.04522400     0.95151901     0.79483301    -0.61453734     0.66963481     1.23585621
O       0.17424399     4.68497601     0.62625302    -0.39951975     0.02503741     0.30996846
O       7.27635203     0.92488499     0.63095502     1.04928327     0.20820647     1.22295647
O       5.70393421     4.74224225     4.00820080     0.42635283     0.80019573    -0.33109290
O       5.29909721     0.87493023     3.81361179     1.42869134    -0.57479604     0.51590130
O       2.05086623     4.78585524     4.20189279    -0.84726340     0.39630690    -0.34104411
O       1.96212421     0.99289025     4.03297883    -0.64547132    -0.44896054     0.34807325
O       3.77489623     2.98797320     3.16794284    -0.54721863    -0.39972699    -0.09282791
O      -0.04901377     2.88498721     3.18518380    -0.00227491    -0.55126092     0.03963203
O       5.87635101     6.41758398     1.81638001    -0.54039543     0.52593863    -0.09344781
O       5.67578802     3.00697400     1.57952302     0.12782450    -0.31621032    -0.03953561
O       2.06525699     6.69740502     1.92050299    -0.73032135     0.09893891     0.55493554
O       1.75453803     2.92952700     1.65174598     1.44012478    -0.69252638    -0.25703585
