# total energy = -19518.73304577 eV

CRYSTAL
PRIMVEC
        7.60600008     0.00000000     0.00000000
        0.00000000     7.60600008     0.00000000
       -1.89786986    -1.89786986     4.85670466
PRIMCOORD
23 1
Ti      3.70895302     6.72849498     1.21097700     0.85839268    -1.21087331     0.35892999
Ti      3.84488902     2.86788002     1.15190002     0.34748112     0.94387546     1.09435730
Ti     -0.04350001     6.66093402     1.26066097    -0.41619028    -0.34305831    -0.51676005
Ti     -0.00135300     2.83022001     1.11193602    -0.31925554     0.32668372     0.20817124
Ti      5.68138422     2.85894322     3.56798480    -1.07324879    -0.38453227     1.03899269
Ti      5.73357724    -1.01967778     3.59779579    -0.54772128     0.22372103     0.54776139
Ti      1.96758024     2.89627223     3.66799782     1.49759821    -0.47043081     0.47350893
Ti      1.91576024    -0.96911479     3.70047782     0.16871405     0.30853095    -0.81967699
O       4.07574498     4.76694800     0.75404398    -1.16171200    -0.28606336     1.10055443
O       3.63367798     0.98088401     0.85982799    -0.14729701    -0.53763587    -0.65521272
O      -0.28876800     4.73290602     0.76226702     0.99601411     1.10642709     0.56922497
O       0.09700099     0.92467798     0.79539299     0.03823695    -0.87600037    -0.52731571
O       5.90085922     4.71041223     3.87767881     0.24209491     0.32177188     0.64366537
O       5.72141024     0.99926424     4.13218883     0.49865459    -0.80582311    -1.40493356
O       1.76737624     4.75204123     4.05989581    -0.39346198     0.67668709     0.43872781
O       1.97549620     0.97340922     4.04854982    -0.68421529    -0.55514354     0.25259710
O       3.84836424     2.84287523     3.37469080    -0.71119774     0.54797608    -1.56121170
O       3.84818024    -1.03469779     3.37320281    -1.60210074     0.22934017    -0.71800396
O      -0.05838979    -0.75143476     3.18576182     1.41545041    -0.37075578    -0.16904881
O       5.63193901     6.77729602     1.60487702     0.22450830     0.10122103     0.17641014
O       5.70053399     2.52669500     1.63528598     0.52711954     0.62886610     0.07541614
O       1.86637101     6.46678698     1.65423602     0.42707273     0.15305577     0.56141318
O       1.81392902     2.87395101     1.80640100    -0.18493643     0.27216011    -1.16756717
