# total energy = -19516.98017811 eV

CRYSTAL
PRIMVEC
        5.93400000     0.00000000     0.00000000
        0.00000000     9.29699974     0.00000000
        0.00000000     0.00000000     4.64899994
PRIMCOORD
23 1
Ti      4.54839499     6.84162699     2.25434901    -0.32952839     0.60110152     0.93335579
Ti      4.45628999     2.27285799     2.36837501    -0.72899980    -0.26308437     0.57016831
Ti      1.52170099     7.10128998     2.33832298     0.41878555    -0.12955588    -0.55308023
Ti      1.37136602     2.45014300     2.29447498     0.88513113    -0.91495105     0.30752051
Ti      2.93019599     4.57078199     0.10240501     0.48445232    -0.52766461     0.49209570
Ti      2.98931101     9.28750900     4.51174798     1.08426083     0.22599105     0.39978226
Ti      0.01071102     4.67310698     0.02137500    -0.00928477    -0.07743857    -0.62237303
Ti      0.04471500     9.29245501     0.14508400    -0.59112332     1.11891726    -0.30915624
O       4.45338598     5.69478998     0.72943200    -1.06299446    -0.68288037     0.22062902
O       4.42535101     0.95993901     0.86011100     0.14510900    -0.79878651    -0.13632663
O       1.51341503     5.55368598     1.00910202     0.75836079    -0.19888904    -0.78912533
O       1.48110098     0.96576499     0.99183200    -0.70011551    -0.97719646    -0.78664550
O       4.41603998     8.29029702     3.55647202    -0.49202782     0.75352994     1.39181579
O       4.55265598     3.81947100     3.69558299    -1.39091950    -0.20666149    -0.21919331
O       1.46063298     8.48836298     3.75790398    -0.11356413    -1.21806752    -0.77713036
O       1.40756201     3.55551501     3.89041801     0.32102446     1.72544946    -0.54866153
O       2.78798701     1.61976399     3.29556102     1.56155957    -1.42664448    -0.11487899
O       0.09931699     5.99163598     3.20074400     0.12319497     0.30082098     0.11574776
O       5.84580902     1.27598399     3.19542000     0.15581251     1.08721451    -0.17322917
O       3.01285803     7.86198598     1.29312801    -0.75426167    -0.46408146     1.05309982
O       3.01074502     3.24718300     1.33297802    -0.53585332    -0.05178769     0.72869539
O       0.00804498     7.67508100     1.45183800     0.56852306     2.57319185    -1.93269408
O       5.80571299     3.29754501     1.40862899     0.20245851    -0.44852680     0.74958406
