# total energy = -19956.37643569 eV

CRYSTAL
PRIMVEC
        5.93400000     0.00000000     0.00000000
        0.00000000     9.29699974     0.00000000
        0.00000000     0.00000000     4.64899994
PRIMCOORD
24 1
Ti      4.57119602     7.12217100     2.56424600    -2.15950840    -1.77767733    -1.79610700
Ti      4.55022102     2.45232099     2.14972701    -1.47685994    -0.41243467     0.29199310
Ti      1.47802302     6.45711399     2.31280097     1.68582463     2.41626040    -0.40239965
Ti      1.43749799     2.44838698     2.45385000     0.46428021    -0.56486515    -1.62484601
Ti      3.10656198     4.53842502     0.01876902     1.40453144     3.09992855     0.51853256
Ti      2.89712998     0.26259998     4.40245298    -2.54117903    -1.04330417     1.29854282
Ti      0.04292501     4.39823698     0.01158999    -1.84909848     3.43953798    -1.02553398
Ti      5.85644802     0.20439699     4.62734702     1.63740303    -1.19314992     1.00263753
O       4.57221802     5.37020699     0.99151798    -0.41695570    -0.77758930    -0.90682405
O       4.42224601     1.16048698     0.64302899    -2.66378470     0.64108938     2.03652992
O       1.52300599     5.44367299     0.79435300    -0.22239768    -0.05977457     1.29789953
O       1.21700401     1.27471301     0.66726399     1.71582813    -0.12517806     1.91066332
O       4.19643200     8.61855398     3.56199701     1.16593350     0.36029756     1.46158939
O       4.37867599     3.56086600     3.71171802     1.01336135    -0.38205682     0.21004815
O       1.17405598     8.62891098     3.83475697     3.26195979    -2.27860708    -0.96645927
O       1.58904297     3.71135099     3.80211002    -0.32835725    -0.82025240    -1.03291742
O       3.17976799     6.01781602     3.44373298    -1.68805095    -0.90994023    -0.06147510
O       2.75785502     1.38435298     3.02201300     2.08969649    -0.65556984     0.04943848
O       5.84411401     5.85171903     3.43124699     0.99127582     0.89485865    -1.04515202
O       0.01807902     1.46675001     3.21434401    -1.24704874     1.22099883    -2.38726554
O       2.90037399     7.58108499     1.67022998    -0.06769049     0.40700295    -0.77796725
O       3.00756001     3.24515202     1.42148101    -0.42791323    -0.58113766     1.02063295
O       0.06491899     7.64426097     1.54605198     0.24397027     0.48267209    -0.01327410
O       0.06920898     3.44020501     1.57490802    -0.58522032    -1.38110971     0.94171419
