# total energy = -19516.16169034 eV

CRYSTAL
PRIMVEC
        5.17600016     0.00000000     0.00000000
        0.00000000     5.50899976     0.00000000
        0.00000000     0.00000000     9.26300011
PRIMCOORD
23 1
Ti      1.79621301     3.25142103     3.46434798    -0.79131128    -1.16395760     2.92971555
Ti      3.35636598     2.28388800     5.81287699    -0.54670132     0.75459155    -3.13110653
Ti      4.36668499     2.04312701     1.57951302    -0.41784890    -0.89706414    -1.25249794
Ti      0.91795700     3.19794602     7.79730502     1.41060079     1.33542094     1.49558710
Ti      2.01489101     0.25118700     1.34160800     0.16051737    -0.29229906    -1.64555548
Ti      3.37376998     5.35051001     7.74062701    -0.77198404    -0.86610753     2.83305154
Ti      0.66788699     0.57665101     6.06515002    -0.70567321    -1.79662765    -4.82737139
Ti      4.43282199     4.95034803     3.28545199     0.84540860    -0.00234845     3.46958802
O       1.58065599     2.08436801     4.92526100     0.23282402    -0.50471082    -0.30775242
O       3.38543098     3.64560500     4.43591699     1.50102318    -0.26667003     1.41348120
O       0.18779098     2.60624198     0.04224602     0.71484845     0.58714479     0.32789316
O       3.53156497     0.91877500     0.24840898    -0.44829771    -0.12387374    -1.41394605
O       1.94911401     4.88089002     8.89733699    -1.12807887    -1.03100504     0.36284475
O       4.30781101     0.85196902     4.76443599    -0.79834608     0.02840299    -0.29462436
O       0.89752600     4.72769601     4.40746302    -0.23554425     0.71829296     0.60906654
O       0.12458102     3.29393401     2.64650200    -1.36768392    -0.19143181    -1.22725819
O       5.02029102     2.01043200     6.84493398    -1.41249981     0.02675388     0.61336748
O       2.47517198     1.82658397     2.26138400     0.86529943     0.44359465     0.18714810
O       2.81984798     3.53245098     7.10268801    -0.98849029     0.37822201     0.67589571
O       0.14705301     0.43242502     1.87469000     0.77258850     0.25954679     0.23742501
O       5.08683099     4.67020402     7.21178499     0.11807924     0.81846497    -0.12354001
O       2.27237898     1.00494797     6.82387801     1.55738821    -0.23828633     1.40450085
O       2.72532099     4.39988600     2.35379602     1.43388111     2.02394693    -2.33591262
