# total energy = -19958.15072878 eV

CRYSTAL
PRIMVEC
        7.60600008     0.00000000     0.00000000
        0.00000000     7.60600008     0.00000000
       -1.89786986    -1.89786986     4.85670466
PRIMCOORD
24 1
Ti      3.95586199     6.59865102     1.07372599    -1.62213890    -1.58036257     1.08022317
Ti      3.97542599     2.51373497     1.16147702    -2.80725669     2.14009348     0.29767215
Ti     -0.12443100     6.68734399     1.20371801     2.27957562     3.43529720     0.82602582
Ti     -0.09231502     3.02381602     1.34262503     2.93196038    -2.89284026    -0.97763406
Ti      5.52902520     2.90170022     3.73579681    -0.59268064    -0.29867719    -1.01569103
Ti      5.71679920    -0.76893979     3.70590782     2.05076844     0.09541984     2.32883926
Ti      1.72954922     2.73511220     3.72857682     1.26919186     0.57064010    -0.80953167
Ti      2.09756220    -0.96837077     3.51753680    -1.21403782    -0.70014636    -1.94199273
O       3.78803300     4.76329101     0.78015798     0.74130151    -0.69416263    -0.24367511
O       4.20734898     0.79059002     0.60317602    -0.13185547     0.95441596     0.71275685
O      -0.17575299     4.92462001     0.82308002     0.03442940    -1.84858658    -0.67345521
O      -0.21877500     1.14491901     0.77039201     0.54761407    -0.11238013     1.58928301
O       5.54448925     5.06248624     4.03703979     0.02354951    -4.71146396     1.22499613
O       5.38180725     1.05922521     4.04179683     0.77842054     2.68313252     1.00387475
O       2.10468525     4.66953620     3.96948280    -0.43089725     0.17345928    -0.17002660
O       1.95340321     0.91241223     4.07992680     0.14273844    -0.77794206    -0.17023100
O       3.68374524     2.72671321     2.99890479     1.87327946     0.39632079     1.80924303
O       3.93533621    -0.84255676     3.19214979    -3.39365509     0.03248873    -1.12094792
O      -0.12003878     2.68552025     3.41233383     0.12952143     1.04815199    -1.05074340
O       0.03888125    -0.92373477     3.34057279     1.43347410     0.25727265    -0.87143666
O       5.79430599     6.73765101     1.89181401    -0.86168215    -0.35381195    -4.27875279
O       5.75730301     2.91288300     1.64324099    -1.52137218     0.51967182     0.91616230
O       1.95507303     6.52484201     1.45141699     0.34235408     0.99440100     1.30023126
O       1.95975201     2.63396098     1.50589700    -2.00260240     0.66960781     0.23481071
