# total energy = -19961.69347146 eV

CRYSTAL
PRIMVEC
        7.60600008     0.00000000     0.00000000
        0.00000000     7.60600008     0.00000000
       -1.89786986    -1.89786986     4.85670466
PRIMCOORD
24 1
Ti      3.77129899     6.56960300     1.25084997    -0.10256057     0.46953838    -0.46326925
Ti      3.78565800     2.82067699     1.24201600    -0.50705130    -0.51484714    -0.38308269
Ti      0.03252202     6.71041601     1.16542299    -0.20754878    -0.31609771     1.08096982
Ti     -0.01694600     2.90007898     1.17835301     0.57774021     0.43258647    -0.04331488
Ti      5.72949723     2.93098425     3.59932580     0.31393824    -0.34532448     0.89916010
Ti      5.71343824    -0.93524480     3.59819082     1.20849607     0.30541272     0.41848113
Ti      1.89051621     2.79312421     3.62968883    -0.55128895    -0.07626280    -0.13934664
Ti      1.90953621    -1.03557178     3.63538384    -1.17631947     0.24380855     0.58488273
O       3.62607201     4.69385100     0.82502501     0.75125348     0.39400319    -0.56467668
O       3.69362598     0.91477998     0.94070199     0.64158921    -0.40257834    -0.62237715
O       0.06355699     4.85216702     0.74746599    -0.37249025    -0.95940699     0.37501482
O       0.05012102     1.01120999     0.70289402    -0.44844529     0.06789797     0.71823305
O       5.95680124     4.78067824     4.14271279    -0.63889880     0.50581743    -1.64766893
O       5.71909525     1.04087122     4.10949083    -0.34294312    -0.53910963    -1.14293317
O       1.69486123     4.66306923     4.10589983     0.79790231     0.60097039     0.32380074
O       1.89775223     0.84405221     4.02886480     0.39023344     0.81102600     0.53898955
O       3.76522822     2.92397821     3.22154082     0.19950071    -0.11094597     0.28220619
O       3.81573824    -1.12000376     3.23222983     0.03969373    -0.04668919     0.15006686
O      -0.01110478     2.81339022     3.16363380     0.35766372    -0.29004471     0.19891733
O       0.02135823    -0.95904576     3.18712879    -0.41468181     0.26979213     0.62220000
O       5.76163798     6.62736000     1.65866799    -1.33878111     0.18488527    -0.71709816
O       5.70197700     3.02333002     1.67292201    -0.34632027    -0.26621623    -0.81967956
O       1.85499598     6.65140798     1.72241803     1.45196446    -0.02974767    -0.34743381
O       1.89398200     2.92846198     1.58880500    -0.28264585    -0.38846838     0.69795809
