# total energy = -19921.38608880 eV

CRYSTAL
PRIMVEC
        6.63013915     0.00000000     0.00000000
        0.00003300     6.38442780     0.00000000
        0.00000000     0.00000000    11.32974411
PRIMCOORD
24 1
Ti      2.40312614     3.78340595     4.20325436     0.21644609    -0.89785295     0.76266173
Ti      4.22704601     2.60102173     7.12649014    -0.21644609     0.89785295    -0.76266173
Ti      5.71808017     2.60102393     1.46157263     0.21739328     0.89765087    -0.76279414
Ti      0.91209205     3.78340407     9.86817205    -0.21739328    -0.89765087     0.76279414
Ti      2.40310971     0.59119217     1.46161808     0.21644609    -0.89785295    -0.76266173
Ti      4.22706251     5.79323570     9.86812660    -0.21644609     0.89785295     0.76266173
Ti      0.91207555     0.59118985     7.12644475    -0.21739328    -0.89765087    -0.76279414
Ti      5.71809660     5.79323809     4.20329981     0.21739328     0.89765087     0.76279414
O       2.09849254     2.24806548     5.78148184     1.16926025     1.35676419    -0.43072370
O       4.53167967     4.13636219     5.54826265    -1.16926025    -1.35676419     0.43072370
O       1.21663912     2.24809130     0.11664607    -1.16910778     1.35736068    -0.43165470
O       5.41353315     4.13633644    11.21309816     1.16910778    -1.35736068     0.43165470
O       4.53166317     0.94414822     0.11660934    -1.16926025    -1.35676419    -0.43072370
O       2.09850904     5.44027945    11.21313490     1.16926025     1.35676419     0.43072370
O       5.41351666     0.94412247     5.78151864     1.16910778    -1.35736068    -0.43165470
O       1.21665543     5.44030527     5.54822592    -1.16910778     1.35736068     0.43165470
O       0.24090847     3.88337092     3.06044661    -0.16538216    -0.12285224     0.12746609
O       6.38926374     2.50105681     8.26929788     0.16538216     0.12285224    -0.12746609
O       3.55598392     2.50099739     2.60446166    -0.16535979     0.12309290    -0.12772834
O       3.07418823     3.88343035     8.72528270     0.16535979    -0.12309290     0.12772834
O       0.24089197     0.69115696     2.60442544    -0.16538216    -0.12285224    -0.12746609
O       6.38928018     5.69327078     8.72531886     0.16538216     0.12285224     0.12746609
O       3.07417179     0.69121638     8.26933404     0.16535979    -0.12309290    -0.12772834
O       3.55600042     5.69321129     3.06041046    -0.16535979     0.12309290     0.12772834
