# total energy = -19074.57231192 eV

CRYSTAL
PRIMVEC
        7.60600008     0.00000000     0.00000000
        0.00000000     7.60600008     0.00000000
       -1.89786986    -1.89786986     4.85670466
PRIMCOORD
22 1
Ti      3.87176202     6.52902399     1.18654197     1.61835192     1.25200789    -0.59352062
Ti      3.71192297     2.80395901     1.09177098    -0.27079177    -0.31722128     1.28828283
Ti      0.23189902     6.66812702     1.04194799    -1.07867742     1.11064267     0.83851547
Ti     -0.14757298     2.85456402     1.24911898    -0.07141962    -0.81249718    -0.73284103
Ti      5.64152723     2.78422721     3.59857681    -1.70445279    -0.00185248    -0.11052817
Ti      6.14786720    -0.69389579     3.68944083    -0.10509285    -0.76713622    -0.87907927
Ti      1.79439021     2.80476722     3.67181182     1.68705413    -0.45395851    -1.05011220
Ti      1.62257524    -1.19912978     3.78691681    -0.61341531     2.92651426    -1.82401762
O       3.73298402     4.72059699     0.81333601     0.12281856     0.55066237    -0.74774238
O       4.03515301     0.96301099     0.64797500    -0.47040175    -0.55400326     2.14111035
O       7.30404599     4.89346502     0.62793601     0.94065387     0.61736092     0.78708156
O      -0.35500798     0.97413398     1.07598700     1.63016820     0.31473117    -0.73949325
O      -1.38803378     5.14796022     4.06989583    -0.09169277    -1.85095816     0.04801897
O       5.34211022     0.98946721     4.08830982     0.97243631    -0.16131596    -0.15803831
O       2.24584322     4.77053820     4.02680879    -0.67275407    -2.24367735     0.66312298
O       1.80250022     0.97150821     4.01762079    -0.36351633    -0.47405709    -0.58373885
O       3.68294824     2.78552925     3.20353779    -0.46886655     0.32404756    -0.45061608
O      -0.09752779     2.94371324     3.15410184     0.88069392    -0.03178168     1.16948470
O       5.68871698     6.67775000     1.85663098    -0.13543728    -0.16753623     0.90157334
O       5.56570698     2.91526298     1.69748700     0.16224258     0.49565899    -0.61170115
O       2.15529401     6.57322702     1.90955902    -1.30063441     0.43294642    -0.16168337
O       1.81885799     2.87731800     1.38196200    -0.66726631    -0.18857686     0.80592158
