# total energy = -19518.35670944 eV

CRYSTAL
PRIMVEC
        7.60600008     0.00000000     0.00000000
        0.00000000     7.60600008     0.00000000
       -1.89786986    -1.89786986     4.85670466
PRIMCOORD
23 1
Ti      3.83427600     6.52671800     1.19638202    -1.03897289     1.34720816     0.93389469
Ti      3.81109201     2.87291297     1.08063202     0.64181264    -1.24045823     1.58352426
Ti     -0.01307602     6.66041199     1.25430000     0.74949665    -0.06710119    -0.40380296
Ti      0.00305198     2.89122801     1.13293701    -0.36149878    -0.09907955     0.56878994
Ti      5.72927625     2.87029921     3.65791684    -2.29070978     0.77282865    -0.69698930
Ti      5.67190322    -0.91761976     3.63242780    -0.33747773    -0.30998465     0.75764550
Ti      1.84396724     2.89351321     3.60503880     2.54065813    -0.50590896    -0.99697570
Ti      1.87787025    -1.05802879     3.70625882     0.41877912     1.17087464    -0.35753645
O       4.00780000     4.74503202     0.63154802    -0.47780010    -0.31294451     1.48407241
O       3.83644801     0.93209302     0.82837899    -0.23824931     0.18054242     0.03323435
O      -0.18571698     4.75910998     0.79221401     0.78832109     0.25423026     0.65184663
O      -0.07947099     0.96155401     0.79749901     0.54294314    -0.24476526    -0.15731275
O       5.92158725     4.71446325     4.16675982     0.01869990     0.69364969    -0.78337249
O       5.52956825     0.98873425     4.07702982     1.05455815    -0.77619139    -1.10988137
O       1.76686923     4.75109221     4.13129383    -0.54451974    -1.06557842    -0.65016307
O       1.94766423     0.89382022     4.05683483    -0.66818137     1.02681465    -0.54197332
O       3.78836120     3.05619722     3.36156980     0.27341970    -0.35798382    -1.36115126
O       3.75028023    -1.03422179     3.32279280     1.59639160    -0.35400787    -0.64155501
O       0.03801424    -0.98836277     3.28514983    -1.40707041     0.52944819    -0.71176235
O       5.65744298     6.79240398     1.59126801     0.80024433    -0.60364408     1.10734986
O       5.77871902     2.88977399     1.67359899    -0.10087264    -0.24651592     0.82290964
O       1.94710002     6.46752201     1.63271698    -0.60926349     0.26305198     0.26501784
O       1.97545402     2.95542203     1.58712301    -1.35070795    -0.05448427     0.20419092
