# total energy = -39032.98780582 eV

CRYSTAL
PRIMVEC
        5.93200024     0.00000000     0.00000000
        0.00000000     9.29399984     0.00000000
        0.00000000     0.00000000     9.29399984
PRIMCOORD
46 1
Ti      4.45074099     6.96775702     7.06220098     0.31705339     0.68395149     0.72051542
Ti      4.44783200     7.05744299     2.31635599    -3.47985906     0.03274301    -0.51713491
Ti      4.54089999     2.44252899     6.80708600     0.19642644    -0.37169629     0.98816864
Ti      4.42615102     2.37944201     2.33570800    -0.80544824    -1.13490721    -0.63794184
Ti      1.55718502     6.94767199     6.90093199     0.21260846     0.17742161     0.75702715
Ti      1.31198799     6.99801802     2.38735501     3.22649141     0.76364955    -1.28986071
Ti      1.64586899     2.14835697     7.08491602    -1.21533186    -0.62024236     0.51127100
Ti      1.42234002     2.33016402     2.18731802     1.29735882    -1.36408592    -0.05586109
Ti      2.76690401     4.39841700     4.65906701    -0.06757582     0.39001747    -1.84067452
Ti      2.94718798     4.78542501     9.20456200     0.95102930     0.94538778     0.87334005
Ti      3.05779200     0.17307001     4.70947099     0.19801667    -0.04016167    -0.93497584
Ti      2.97804599     9.20922702     9.17422401     0.88345606    -0.27809499     1.55592397
Ti      5.69032600     4.71766302     4.76265902     0.61011941    -0.87474696    -0.25865847
Ti      0.03020798     4.59991500     0.03332600    -0.71020478     1.39877757     0.25832834
Ti      0.07102098     8.95725800     4.85489599    -0.51002684     1.51326344    -1.01357449
Ti      0.02854800     0.10376600     9.28120798    -0.92553706     0.14800407     0.63257106
O       4.41939798     5.57834802     5.72148099     0.11013119    -1.35574834    -1.09552689
O       4.49408002     5.53387898     0.96419402    -0.40034508    -0.58986708    -0.69398008
O       4.59868498     0.84540500     5.59873002     0.26698397     0.75039165    -0.50741305
O       4.31393401     1.06072902     0.82732100     1.51882576     0.35033968     1.25351019
O       1.67064697     5.41777400     5.69664898    -1.65641763     0.55605346    -0.33228230
O       1.48458402     5.79291600     0.72135400    -0.34985168    -1.95123585     1.13073457
O       1.54733000     0.75365498     5.79903901    -1.54480214    -0.02592701    -1.03296113
O       1.56047201     0.89889302     0.83578302    -0.33269213     0.71699095    -0.25581046
O       4.57227999     8.55556998     8.30455702    -0.68752095    -1.09843507    -0.30979953
O       4.43333900     8.48708200     3.69376500     1.40983075     0.53207740     0.25950977
O       4.38986301     3.73351701     8.32788400     0.78254665     0.38724813     0.21241485
O       4.38370000     3.55692098     3.88286601     0.50516154     0.88864429    -0.35743926
O       1.68194898     8.39044799     8.19379398    -1.59009034     0.38908313     0.10602668
O       1.41834198     8.45121998     3.70393600    -0.35519521    -0.09017068     0.06980085
O       1.59195498     3.91809699     8.30348798    -1.07461970    -1.67460536     0.04598471
O       1.46440602     3.42610302     3.63060600     0.56824846     2.81513223     2.23594167
O       3.06494701     6.15648400     7.97940300    -0.73716923     0.37675211    -0.98771690
O       3.13315499     6.23907000     3.34396000    -1.73727448    -1.26549770    -0.22382721
O       3.20220998     1.43941498     7.80077001    -1.38038980    -0.04257748     0.42884243
O       2.80413798     1.39369799     3.20477903     1.28655376     0.41354693    -0.33732192
O       5.86622198     6.26559300     8.02741499     0.75476047    -1.02113200    -0.42558355
O       5.79950997     6.03835900     3.14237400     1.21345958    -0.73064351     1.43974246
O       5.91129899     1.40055898     7.95193098     0.59154472     1.95564530    -1.37102790
O       3.00171498     8.06389800     5.89519401    -0.24467295    -2.96847828     1.88451930
O       2.78069098     7.81767299     1.33080199     1.44301367     0.89368262    -0.09363293
O       2.76506998     3.01907702     5.93228499     2.04243574     0.72605641    -0.01373715
O       5.92372899     7.60756602     5.99866298     0.70851993     0.43215144    -0.71018395
O       5.92352499     8.00145699     1.35037499     0.19072373    -0.70212714     0.89109301
O       0.07340599     3.19597002     5.90395401    -0.09960637     0.22132476     0.90056418
O       0.04741301     3.44253598     1.66312202    -1.38066800    -0.25795630    -1.85890365
