# total energy = -19960.51981089 eV

CRYSTAL
PRIMVEC
        7.60600008     0.00000000     0.00000000
        0.00000000     7.60600008     0.00000000
       -1.89786986    -1.89786986     4.85670466
PRIMCOORD
24 1
Ti      3.83569700     6.56629898     1.25837800     1.05259588     0.17654692    -2.10735278
Ti      3.74535798     2.80351000     1.20759402     2.33060432    -0.44690469    -0.17905323
Ti      0.00308701     6.81739501     1.25891199    -1.20169935    -2.11948762    -1.06731263
Ti      0.09821800     2.86676198     1.24738799    -2.50384480     3.12702593    -0.01830009
Ti      5.68473423     2.89482022     3.63072983    -1.08109220     1.39953527     0.32008961
Ti      5.68562923    -0.81240477     3.66439979    -0.14725819    -0.93275389    -0.96123273
Ti      1.88690822     2.70599523     3.57099783     1.27086077     1.03820387     1.85831486
Ti      1.92469920    -1.05824676     3.55152782     0.17510942    -0.98326786     2.33019603
O       3.93090398     4.64318402     0.78001700    -1.38202811     0.03043056    -0.13192721
O       3.88663402     0.74455202     0.76113802    -0.39625497     1.94069613    -0.40593569
O      -0.03761598     4.82134800     0.81309302     0.79707519    -0.57008809     0.10558599
O      -0.13981900     1.10519103     0.81182098     0.36593985    -1.27860159    -0.19520619
O       5.44884421     4.80460123     4.12845580     0.93921302     1.11172434     0.29166348
O       5.55146020     1.07824723     3.97947282     1.14088143    -1.81544376     0.92062265
O       2.11490720     4.61769123     4.01757083    -0.77115743     0.78772074    -0.48456597
O       1.92083923     0.86247324     3.99620684    -0.71573419    -0.44083740     0.75888786
O       3.74296023     2.66104824     3.30083279    -0.52775794     0.53620736    -1.25047294
O       3.85821022    -0.85106180     3.10393880    -0.13829095    -0.26477899     1.58210835
O      -0.03346480     3.06738223     3.19904179     0.30102821    -0.73300224    -0.41985873
O      -0.02119276    -0.92094479     3.29402683     0.14621689     0.00227106    -0.16110178
O       5.76308702     6.66159300     1.60243301     0.37001813     0.09988688     0.97301018
O       5.54011200     2.93586898     1.69498299     1.36687814    -0.54544457    -0.13999508
O       1.95741802     6.67266598     1.70754402    -1.47451561    -0.17916199    -1.50372001
O       1.87637802     2.69576697     1.58847702     0.08321276     0.05952337    -0.11444370
