# total energy = -19069.97656495 eV

CRYSTAL
PRIMVEC
        5.93400000     0.00000000     0.00000000
        0.00000000     9.29699974     0.00000000
        0.00000000     0.00000000     4.64899994
PRIMCOORD
22 1
Ti      4.16167501     7.16275201     2.19378203     0.63762148    -0.45028775    -0.20442129
Ti      4.39014099     2.22051998     2.30966401     2.81365822     2.55396539    -0.36723646
Ti      1.22735498     6.60862998     2.63129599    -2.13573237     3.47202851     0.37581957
Ti      1.71820001     2.57636802     1.59057500    -1.59828496     1.00784427     2.11695663
Ti      3.07073800     4.54333399     4.27591199     0.90385520     1.03461230     1.30660400
Ti      3.17194601     0.20692201     0.21812797    -0.94797663    -1.32827918    -0.62377377
Ti      5.89472701     4.61314702     0.23709702     0.60767891     1.40997139    -0.13019583
Ti      0.04228401     8.93575197     0.21821799     2.16643238    -1.47725178    -1.32238107
O       3.83422901     5.69090100     1.05458300     1.58351140    -0.84214716    -0.33963540
O       4.82968498     0.85565400     0.98783301    -1.22991234     1.58869603     0.59343757
O       1.51476602     1.13142700     0.52774699    -1.32256182    -0.99044098     0.09522315
O       4.39742802     8.48706602     3.86183799     0.15472519     0.13331869     0.07169344
O       4.85484000     3.85823800     3.67841500    -2.93251959    -1.89501918    -0.36279256
O       1.37011197     8.27841498     3.80804702     0.31546419     0.88598397     0.43877846
O       1.61600598     3.51335800     3.94864698    -1.61423867     0.96064317    -0.49248368
O       2.84097797     6.43439700     3.32566798     0.95908920    -3.47772608     1.67033193
O       3.14979301     1.35222901     3.04618497    -2.38997806    -1.01716530     1.31005494
O       5.66105101     6.24547701     3.65702099     1.28062711    -0.95523151    -0.71047166
O       2.73891201     8.09962202     1.50437498     1.01662151     0.71311938    -0.68852908
O       3.35587802     2.83410698     0.92497601     1.07669356     1.82650774    -0.89298483
O       0.04494398     8.05687799     1.79393601    -0.70373948    -2.04067145    -0.72145027
O       0.00995102     3.52663198     1.72591599     1.35896479    -1.11246996    -1.12254329
