# total energy = -19958.23296638 eV

CRYSTAL
PRIMVEC
        5.93400000     0.00000000     0.00000000
        0.00000000     9.29699974     0.00000000
        0.00000000     0.00000000     4.64899994
PRIMCOORD
24 1
Ti      4.43052901     6.92547698     2.14082900     0.92111553    -0.14938423     1.17007709
Ti      4.44634400     2.37352200     2.36473099    -1.05825257    -0.43790865     0.17753654
Ti      1.48503202     6.89776201     2.41350801    -0.29343214    -0.36549248     0.00216770
Ti      1.43891999     2.39832703     2.36900399     1.26077150    -0.93732994    -0.35723255
Ti      2.99965198     4.93238902     4.64213202    -1.34587247    -4.56500204     1.67097779
Ti      3.01093298     9.07372198     4.61425401     0.04391523     3.81140011    -0.32124815
Ti      5.91556601     4.66161601     4.51164199     1.30036907    -3.36098972    -0.28512619
Ti      5.91715200     9.08439199     0.21034902     0.71575502     4.57838335    -1.07432043
O       4.62648800     5.57193000     0.78015099    -0.83488559     1.60763710     1.51872678
O       4.31083102     0.78100598     0.94291702     0.79485041    -0.65610129    -0.23057019
O       1.42122298     5.64741099     0.87790897     0.10692374     0.37493640     0.39511802
O       1.44457298     0.96845099     0.91234799    -0.30940513    -1.51510332     0.39415386
O       4.52620399     8.19692502     3.86190599    -0.87362930     0.44632593    -1.14291620
O       4.28178898     3.72087702     3.70242202     1.76432404     1.97728628     1.19328670
O       1.42318099     8.54477698     3.67964300     0.49220034    -1.86195863    -0.54931511
O       1.68102499     3.90508701     3.71570400    -2.07806739     0.32699199     0.23035242
O       3.11019399     5.93719099     3.14482001    -0.54058801     2.63283915    -1.73900869
O       3.00191797     1.50587499     3.21300699    -0.89514301    -1.09966637     0.24394610
O       5.92226698     6.24538298     3.23916898     0.49699700    -1.85112966     0.37157134
O       0.02410101     1.61565800     3.45281700    -0.34461305     0.15745956    -1.70677476
O       3.00993400     7.70749300     1.30166898    -0.98754386     0.11171293     0.68268445
O       2.90323499     3.35843501     1.44056499     0.26644866     0.08389256    -0.18732293
O       0.07269498     7.78268898     1.47040302    -0.01602209     0.31455916    -0.04003055
O       5.77665798     3.30119099     1.36592502     1.41378433     0.37664156    -0.41673304
