# total energy = -19900.68391906 eV

CRYSTAL
PRIMVEC
        8.52446444     0.00000000     0.00000000
        0.00002853     4.36829271     0.00000000
        0.00000000     0.00000000    12.87911118
PRIMCOORD
24 1
Ti      3.08972541     2.58864630     4.77805839     0.33111733    -0.41092723     2.81114497
Ti      5.43476776     1.77964661     8.10105292    -0.33111733     0.41092723    -2.81114497
Ti      7.35181171     1.77964816     1.66144581     0.32935535     0.41174690    -2.81276322
Ti      1.17268152     2.58864494    11.21766569    -0.32935535    -0.41174690     2.81276322
Ti      3.08971120     0.40450001     1.66149746     0.33111733    -0.41092723    -2.81114497
Ti      5.43478203     3.96379302    11.21761404    -0.33111733     0.41092723     2.81114497
Ti      1.17266726     0.40449833     8.10100127    -0.32935535    -0.41174690    -2.81276322
Ti      7.35182591     3.96379470     4.77811004     0.32935535     0.41174690     2.81276322
O       2.69805697     1.53815019     6.57211186     1.05424370     1.24990087    -2.30549595
O       5.82643627     2.83014272     6.30699944    -1.05424370    -1.24990087     2.30549595
O       1.56424541     1.53816776     0.13259766    -1.05462834     1.25019398    -2.30628965
O       6.96024789     2.83012514    12.74651326     1.05462834    -1.25019398     2.30628965
O       5.82642200     0.64599636     0.13255589    -1.05424370    -1.24990087    -2.30549595
O       2.69807117     3.72229654    12.74655510     1.05424370     1.24990087     2.30549595
O       6.96023368     0.64597878     6.57215363     1.05462834    -1.25019398    -2.30628965
O       1.56425942     3.72231418     6.30695767    -1.05462834     1.25019398     2.30628965
O       0.30973099     2.65704329     3.47896923    -2.27071302     0.71801553     0.12669398
O       8.21476218     1.71124967     9.40014208     2.27071302    -0.71801553    -0.12669398
O       4.57197388     1.71120890     2.96062736    -2.27001857    -0.71783838    -0.12738612
O       3.95251929     2.65708407     9.91848376     2.27001857     0.71783838     0.12738612
O       0.30971679     0.47289687     2.96058624    -2.27071302     0.71801553    -0.12669398
O       8.21477645     3.89539603     9.91852488     2.27071302    -0.71801553     0.12669398
O       3.95250509     0.47293765     9.40018314     2.27001857     0.71783838    -0.12738612
O       4.57198814     3.89535525     3.47892810    -2.27001857    -0.71783838     0.12738612
