# total energy = -19918.11555832 eV

CRYSTAL
PRIMVEC
        6.39405261     0.00000000     0.00000000
        0.34008280     6.79670258     0.00000000
        0.00000000     0.00000000    11.44752663
PRIMCOORD
24 1
Ti      2.51906920     4.02771949     4.24695073    -0.01756424    -1.13386900     0.67301993
Ti      4.21506594     2.76898284     7.20057603     0.01756424     1.13386900    -0.67301993
Ti      5.65300737     2.76898516     1.47676690     0.10491365     0.65037544    -0.57851257
Ti      1.08112784     4.02771743     9.97075999    -0.10491365    -0.65037544     0.57851257
Ti      2.34902794     0.62936846     1.47681278    -0.01756424    -1.13386900    -0.67301993
Ti      4.38510721     6.16733407     9.97071411     0.01756424     1.13386900     0.67301993
Ti      0.91108657     0.62936594     7.20053009    -0.10491365    -0.65037544    -0.57851257
Ti      5.82304864     6.16733659     4.24699667     0.10491365     0.65037544     0.57851257
O       2.14350686     2.39323442     5.84158522     1.51763277     1.48837849    -0.14121069
O       4.59062829     4.40346791     5.60594155    -1.51763277    -1.48837849     0.14121069
O       1.29305593     2.39326185     0.11785870    -1.30144585     1.11185366     0.16981911
O       5.44107928     4.40344055    11.32966774     1.30144585    -1.11185366    -0.16981911
O       4.42058702     1.00511668     0.11782158    -1.51763277    -1.48837849    -0.14121069
O       2.31354812     5.79158565    11.32970486     1.51763277     1.48837849     0.14121069
O       5.27103801     1.00508932     5.84162241     1.30144585    -1.11185366     0.16981911
O       1.46309707     5.79161315     5.60590436    -1.30144585     1.11185366    -0.16981911
O       0.43916834     4.13413965     3.09226259     0.48423584     0.06474966     0.59628918
O       6.29496686     2.66256268     8.35526424    -0.48423584    -0.06474966    -0.59628918
O       3.56257159     2.66249935     2.63153720     0.52167214     0.61915787    -0.07896632
O       3.17156362     4.13420297     8.81598937    -0.52167214    -0.61915787     0.07896632
O       0.26912708     0.73578842     2.63150066     0.48423584     0.06474966    -0.59628918
O       6.46500813     6.06091391     8.81602590    -0.48423584    -0.06474966     0.59628918
O       3.00152235     0.73585174     8.35530071    -0.52167214    -0.61915787    -0.07896632
O       3.73261286     6.06085059     3.09222599     0.52167214     0.61915787     0.07896632
