# total energy = -19073.74762471 eV

CRYSTAL
PRIMVEC
        7.60600008     0.00000000     0.00000000
        0.00000000     7.60600008     0.00000000
       -1.89786986    -1.89786986     4.85670466
PRIMCOORD
22 1
Ti      3.56988101     6.65964801     1.26514400    -0.26542099     0.38436001     1.88777766
Ti      4.10112702     2.93735200     1.19618602     0.38043753    -0.73302487    -2.69175266
Ti     -0.13214403     6.72669398     1.24013699     0.49120378    -1.46745896     2.30732914
Ti      0.16450300     2.86844100     1.14394802    -1.30822251     0.32342767     1.74194386
Ti      5.90016621     3.03863425     3.58365882    -1.03971645    -2.36934546     0.79067751
Ti      5.69909325    -1.07300678     3.80071982    -0.92621146     1.47804754     0.00176532
Ti      2.05413824     3.01325422     3.79750380    -1.52520107    -1.74097404    -2.01161001
Ti      1.60406521    -0.93602179     3.92110182     0.33806625     1.54256605    -1.50745480
O       3.80469299     4.85969901     0.75694800     0.08625617    -1.61863628     1.71019510
O       3.33368300     1.20358799     0.93921998     0.41263547    -1.34088865     0.57473870
O       0.10616597     4.70767099     1.07600801    -0.20977099     2.07717702    -0.36897812
O       0.48775998     0.95859199     0.85482399    -0.93693168    -1.07519383     0.52556402
O       5.19901821     4.73750024     4.17916384     0.56326643     0.52486365     0.14884096
O       5.58212020     1.19631122     4.27384884    -0.26411821    -1.08288195    -3.15749429
O       2.06216522     4.83309923     4.26567580    -0.18784847     1.84702875    -0.37389253
O       2.14841021     1.01819725     4.04635379    -0.13789371    -0.25396621    -0.22221796
O       3.66591223     3.19255122     2.85488983    -0.36113574     0.10870937     2.76786069
O       0.05296821     2.97054522     3.27420279     2.31972418     0.56430516     0.75042996
O       5.47934001     6.55661397     1.90638999    -0.15631902     0.53001254    -0.86268848
O       5.84561999     2.53031198     1.65973402     0.13170429     0.49604517     0.15869754
O       1.79898500     6.20935802     2.00000499     1.23804731     1.82971519    -0.79450511
O      -0.18979678    -0.71292680     3.44890881     1.35744887    -0.02388787    -1.37522677
