# total energy = -19941.73882898 eV

CRYSTAL
PRIMVEC
        5.06712750     0.00000000     0.00000000
        2.07423758     4.97810317     0.00000000
        0.00000000     0.00000000     9.26345909
PRIMCOORD
24 1
Ti      3.06578132     2.95001942     3.43667725     3.30742103    -3.63343240     1.24017773
Ti      4.07558385     2.02808389     5.82678194    -3.30742103     3.63343240    -1.24017773
Ti      5.21511723     2.02808558     1.19501531    -6.84724107     1.05288025     1.90822128
Ti      1.92624797     2.95001793     8.06844393     6.84724107    -1.05288025    -1.90822128
Ti      2.02866262     0.46096782     1.19505245     3.30752567    -3.63330770    -1.23969847
Ti      5.11270257     4.51713564     8.06840680    -3.30752567     3.63330770     1.23969847
Ti      0.88912916     0.46096598     5.82674476     6.84800546    -1.05276121     1.90870593
Ti      6.25223603     4.51713747     3.43671439    -6.84800546     1.05276121    -1.90870593
O       2.33415215     1.75287480     4.72707228    -0.50172757     0.64649976    -1.18248112
O       4.80721296     3.22522851     4.53638691     0.50172757    -0.64649976     1.18248112
O       1.66019824     1.75289492     0.09537251     1.42319843    -0.59281768    -0.64154010
O       5.48116699     3.22520848     9.16808638    -1.42319843     0.59281768     0.64154010
O       3.77009425     0.73617681     0.09534243     0.50118892    -0.64721375    -1.18278631
O       3.37127091     4.24192650     9.16811646    -0.50118892     0.64721375     1.18278631
O       4.44404822     0.73615674     4.72710231    -1.42248752     0.59254154    -0.64123619
O       2.69731686     4.24194664     4.53635684     1.42248752    -0.59254154     0.64123619
O       1.44576936     3.02796469     2.50229142     0.12977005    -1.51642795    -1.43941798
O       5.69559575     1.95013863     6.76116777    -0.12977005     1.51642795     1.43941798
O       3.53022366     1.95009230     2.12946764     2.08695210    -1.65573706    -2.58516471
O       3.61114145     3.02801101     7.13399140    -2.08695210     1.65573706     2.58516471
O       0.40865064     0.53891293     2.12943802     0.12924580    -1.51697123     1.43942955
O       6.73271452     4.43919037     7.13402097    -0.12924580     1.51697123    -1.43942955
O       2.57402274     0.53895931     6.76119729    -2.08688345     1.65615306    -2.58486544
O       4.56734237     4.43914401     2.50226185     2.08688345    -1.65615306     2.58486544
