# total energy = -19961.28540569 eV

CRYSTAL
PRIMVEC
        7.60600008     0.00000000     0.00000000
        0.00000000     7.60600008     0.00000000
       -1.89786986    -1.89786986     4.85670466
PRIMCOORD
24 1
Ti      3.81365598     6.66235502     1.15474202     0.11026180     1.22934746    -0.00082404
Ti      3.76138099     2.87501899     1.20625002     0.73983032    -1.29325997    -0.00246440
Ti     -0.04966699     6.73273099     1.25051299    -0.16689525     0.16119512    -0.07525570
Ti     -0.03684100     2.87823898     1.33270200    -0.40675047    -0.43050259    -1.34499059
Ti      5.66440224     2.93045121     3.72103483     0.56495796    -2.43131447    -1.00014176
Ti      5.64110823    -0.97801978     3.62565682     0.81563470     2.41442052     0.63526455
Ti      1.95573423     2.82112621     3.66072883    -0.27760391    -0.94070477    -0.67146441
Ti      1.93508420    -0.99273578     3.53735280    -0.41087761     0.63753046     1.09789231
O       3.85315001     4.77299798     0.76446999    -0.20945011    -0.24559804     0.45035820
O       3.90478199     0.98509499     0.69623798    -0.58109807    -1.19105550     0.02223465
O      -0.08992399     4.73518900     0.73494999     0.16263416     0.28051312     1.47274386
O      -0.11272200     1.03140001     0.73903598     0.24371959    -1.27515863     0.62878254
O       5.66142324     4.74883124     4.14895782    -0.21741256     0.59937322    -0.78277136
O       5.73883123     0.91885322     3.98968981     0.07305098    -0.35137634     0.59233919
O       2.03927121     4.72976620     4.01080181    -0.06399041    -0.02482298    -0.31643015
O       2.05905323     0.90493120     4.13117281    -0.64907960     0.55258992    -1.04791699
O       3.88086620     2.54487123     3.11658682    -1.19184457     1.24550248     0.76526986
O       3.81796422    -0.94340678     3.14716681    -1.12581887    -0.43020383    -0.32835236
O      -0.01203275     2.73288024     3.33175579     1.20207191     0.66047165    -0.29322363
O      -0.01916579    -1.07844778     3.19989980     0.62476467     0.09691057    -0.17276200
O       5.65638399     6.79918898     1.62028502     0.43027067    -0.64498101    -0.23701775
O       5.77311001     2.88361701     1.68958099    -0.96153740     0.53171950    -0.27107434
O       1.85287699     6.68811097     1.49797803     0.75447662     0.08648526     0.70438868
O       1.89275500     2.71180501     1.66412502     0.54068571     0.76291935     0.17541538
