# total energy = -39033.49858944 eV

CRYSTAL
PRIMVEC
        7.60600008     0.00000000     0.00000000
        0.00000000     7.60600008     0.00000000
       -3.79573973    -3.79573973     9.71340985
PRIMCOORD
46 1
Ti      1.83769945     4.88344245     6.01091962    -1.24053460     0.37662819     2.45163853
Ti      4.03043598     6.67558397     1.26086402    -0.73467655     1.66437288     1.98432391
Ti      1.80435244     0.81051344     6.06333764    -0.40511088     0.12014538    -1.56934539
Ti      3.93878999     2.74540999     1.26897001     0.04300557    -0.02752547     1.39915655
Ti     -1.95257954     4.75829944     6.02154063    -0.54113566     1.21850898    -0.29208720
Ti      0.15936602     6.76597401     1.18223399    -0.96991560    -0.77619756    -1.20965486
Ti     -2.03123555     1.05168147     6.02522064    -0.40012756    -2.08745912     0.12768694
Ti      0.13605602     2.88573499     1.14809100    -0.47830276     0.81810193     2.41689572
Ti      3.66393544     0.95863343     8.57733165     1.02981667     1.64956949     0.04641023
Ti      5.79964502     2.90175202     3.73869400    -0.50579763    -2.34692646    -2.68151144
Ti      3.61657243    -2.74361957     8.41248262    -0.17193796    -1.34548835    -0.14918215
Ti      5.95753902    -0.98934402     3.58949099    -2.96400173     1.22564225     1.52574872
Ti      0.05701647     1.03193443     8.30438361    -2.53937206    -1.67589168     1.88509523
Ti      1.88723901     2.68833801     3.53248500     1.43416368     0.22697656     0.06518237
Ti     -0.27286258    -2.76588555     8.50788063     0.80754344     0.93681829     0.56773373
Ti      1.93840400    -1.23985801     3.62441002     1.02801021     1.62149818     0.06455091
O       1.58028245    -0.94573955     5.76764763     0.09687123    -1.05590078    -1.50549459
O       3.77981102     0.94346398     1.02000799    -0.08773250     0.25144601    -1.85444458
O      -1.91784758     2.86557344     5.63469063    -0.32671097     0.10898756     1.07665396
O      -0.05408398     4.88882302     0.78459698     0.49503679    -0.51827005    -0.62315670
O      -1.66228153    -0.92788156     5.67407560    -1.04966611     0.25419684    -0.89062687
O       0.12590900     1.04753801     1.05037398     0.08117079    -0.85568685    -1.30762859
O       3.34781744     2.87419443     8.83059165     1.52374017     1.23440843     0.66042100
O       5.75031798     4.64503000     4.01425400    -0.77814440     3.06824586     0.92595358
O       3.92216547    -0.88333653     9.03777862    -0.23100548    -1.44212947    -1.78526285
O       5.51407600     0.98947901     4.05196402     1.47020721    -1.34251615     0.15631387
O       0.25087547     2.65316847     9.18600662    -0.56820990     0.19563660    -2.37661243
O       2.17467899     4.51641300     4.31154700    -0.06068063    -0.18776028    -2.56708548
O      -0.42413456    -0.92452457     8.78302364     1.52563893    -0.16502040     0.98320101
O       1.81295099     0.94501299     3.98680399     0.10698107    -1.58032426     0.84796942
O       1.82551345     0.67024146     8.29529462     0.80812785    -0.31636536    -1.07186708
O       3.83210802     2.77926501     3.29037302     0.97220569     0.22750878    -1.28314113
O       1.82550445    -2.62845055     7.91587062    -0.56273884    -0.39266776     2.27147458
O       3.93323199    -0.96564201     3.15632602    -0.85117919    -1.38025276     1.19401484
O      -1.97129956     0.92688946     7.93066964    -1.33964449     0.88806168     0.20808871
O       0.08371198     2.80557898     3.28694999    -1.03292282     0.40677875     0.13161096
O      -2.02153155    -3.08793558     8.13767563    -0.80098198    -0.02916506    -0.06448329
O       0.03612598     6.06268099     3.43594402     2.04936770     1.32506067    -1.52446239
O       3.69296144     4.81400847     6.41358863     0.92093813     0.04039590     0.94633935
O       5.83270902     6.91782301     1.58594200     0.91661122    -0.76530482     1.15293734
O       3.53583946     0.86719446     6.25850160     3.34386283     0.95730511     1.36003669
O       5.86335600     3.04145498     1.67575301    -1.69034515    -0.23581627    -0.74971365
O      -0.24027457     4.78618343     6.49090662     2.52758664    -0.98910710     0.69588553
O       1.95040600     6.59008401     1.60423100     0.08845472    -0.39790459     0.68166681
O       0.04288844     1.26295443     6.52417361    -0.84223894     0.79451077    -1.35658601
O       2.01259502     3.06347002     1.67315300    -0.09622589     0.30287478    -0.96464278
