# total energy = -19074.38142003 eV

CRYSTAL
PRIMVEC
        5.93400000     0.00000000     0.00000000
        0.00000000     9.29699974     0.00000000
        0.00000000     0.00000000     4.64899994
PRIMCOORD
22 1
Ti      4.47753599     6.93810701     2.38166397    -0.87340741    -0.19386536    -0.35501523
Ti      4.38447699     2.24330899     2.27564400    -0.06447738     0.65500600    -0.02786974
Ti      1.52134300     7.12328401     2.39358999     0.68812619     0.55011781     0.46179421
Ti      1.58736702     2.40927703     2.10943101    -0.75288459     0.54121330    -0.07994205
Ti      2.93552200     4.69971502     4.61577698     0.78941895     0.15500698    -0.50517979
Ti      3.04195902     0.09278202     0.04595201    -0.35912411    -0.57463791    -0.68608036
Ti      5.82744402     4.54957902     4.53922398    -0.63281789    -0.50322447     0.03249876
Ti      0.04096398     9.10085099     0.07955598    -0.27070847     0.23981511    -0.37420158
O       4.55604599     5.43713903     1.05113901    -0.84122130     0.97237152    -0.26343250
O       4.50374301     0.94539802     0.86198100     0.56134556     0.26602880     0.21299361
O       1.50125998     0.85823797     0.95044298    -0.85076421     0.70028520    -0.65324197
O       4.39216202     8.20976598     3.94421798     0.85877346     1.19487359    -0.19963749
O       4.29145700     3.88142300     3.59261801     0.53191336    -1.03320642     0.05857824
O       1.50202798     8.25046701     3.89900602    -0.32612579     0.78518897     0.10798380
O       1.45604099     3.88482900     3.66206802     0.55056518    -0.37597667     0.18875761
O       2.88897202     6.23156600     3.36654401     0.20123929    -1.45721902    -0.01154760
O       2.76397602     1.25300701     3.11082397     1.04606656     0.65305042     1.03144572
O       5.88402202     6.12895499     3.28554502     0.98816401    -0.55065594     0.15347563
O       3.02954298     8.09529197     1.63644900    -0.83925132    -1.11858687    -0.54807352
O       3.08040602     3.10924602     1.24203102    -0.55017926     0.95103804     0.03345598
O       5.92800998     8.05757000     1.52740398    -0.07810757    -1.43840934     1.23170002
O       5.89140801     3.15542298     1.36436601     0.22345594    -0.41821400     0.19153851
