# total energy = -19960.10043688 eV

CRYSTAL
PRIMVEC
        7.60600008     0.00000000     0.00000000
        0.00000000     7.60600008     0.00000000
       -1.89786986    -1.89786986     4.85670466
PRIMCOORD
24 1
Ti      3.73723400     6.59276900     1.30131502     0.38337913    -0.01185742    -0.95364154
Ti      3.83975701     2.87427698     1.24123202    -1.69255450     0.24093380    -1.74312837
Ti     -0.00588800     6.58170899     1.16447798    -0.05370085     2.52161627     1.71019767
Ti      0.03337500     2.97098799     1.12167098    -0.09022519    -1.75226916     1.74039657
Ti      5.75387024     2.90184320     3.57977683     1.73546982     0.32115456     0.27400077
Ti      5.67518523    -0.97814478     3.66645379     2.26928143     0.02197677     0.45056286
Ti      1.91253421     2.90003320     3.58563281    -1.40545241    -0.51553209     1.23808665
Ti      1.90719122    -0.99866378     3.65132879    -2.09811300     0.25135731     0.60876135
O       3.63593497     4.73292502     0.69355299     0.49879471    -1.16710258     1.33308689
O       3.55739502     0.81808601     0.82502199     1.05650036     2.39477779     0.50398269
O       0.05309299     4.83437698     0.79689501    -0.52283582    -1.25781164    -1.14185382
O       0.16967201     1.01729500     0.76923502    -1.20995697    -1.03604312    -0.12642145
O      -1.54842576     4.78642124     4.04418379    -1.43531707    -1.12610812     0.07898740
O      -1.62966775     0.96516422     4.18004079    -1.27932510     0.76321529    -2.62046700
O       1.65701420     4.71339325     4.25754383     0.82113095     0.11559864    -2.19862903
O       1.74332725     0.95504222     4.00951379     1.20459313    -1.12205555     0.67743528
O       3.80635725     2.98262920     3.21002979     0.19720549    -0.48259213     0.20517025
O       3.80992623    -1.16975679     3.29481181    -0.21662195     0.40192425     0.51883184
O      -0.00896675     2.72946525     3.15473484    -1.71591401     0.42185905     0.29769658
O      -0.03826777    -1.06977277     3.15946981     0.58704658     0.76422650    -0.15317378
O       5.71060698     6.53236300     1.60597897    -0.73345039     0.64425930    -0.09329534
O       5.61991701     3.05304999     1.57837899     1.01035419    -0.59541655    -0.00605598
O       1.87776198     6.53667399     1.70979101     0.20188078     0.04634209     0.47091340
O       1.76511199     3.00070298     1.72335599     2.48783068     0.15754646    -1.07144465
