# total energy = -4989.04767298 eV

CRYSTAL
PRIMVEC
        3.15965550     0.00000000     0.00000000
        0.00000000     4.95070647     0.00000000
        0.00000000    -0.00006425     4.95070647
PRIMCOORD
6 1
Ti      1.57982769     2.47532105     2.47535318     0.00000000     0.00000000     0.00000000
Ti      0.00000000     0.00000000     0.00000000     0.00000000     0.00000000     0.00000000
O       1.57982769     0.96480724     0.96481976     0.00000000    -0.54173524    -0.54173524
O       1.57982769     3.98583487     3.98588659     0.00000000     0.54173524     0.54173524
O       0.00000000     1.51048777     3.44017394     0.00000000     0.54079524    -0.54079524
O       0.00000000     3.44015434     1.51053241     0.00000000    -0.54079524     0.54079524
