# total energy = -19958.66173513 eV

CRYSTAL
PRIMVEC
        5.69332754     0.00000000     0.00000000
        0.00002647     4.95770925     0.00000000
        0.00000000     0.00000000     9.35702908
PRIMCOORD
24 1
Ti      2.06357308     2.93793381     3.47139117    -0.09767882     0.62540591    -1.12777085
Ti      3.62978099     2.01977523     5.88563828     0.09767882    -0.62540591     1.12777085
Ti      4.91013821     2.01977683     1.20708617    -0.09621560    -0.62589544     1.12800714
Ti      0.78321586     2.93793237     8.14994339     0.09621560     0.62589544    -1.12800714
Ti      2.06356005     0.45907929     1.20712369    -0.09857587     0.62360588     1.12710725
Ti      3.62979402     4.49862991     8.14990587     0.09857587    -0.62360588    -1.12710725
Ti      0.78320284     0.45907748     5.88560076     0.09607702     0.62312662     1.12876639
Ti      4.91015123     4.49863167     3.47142869    -0.09607702    -0.62312662    -1.12876639
O       1.80198345     1.74569363     4.77482046     0.58381521    -0.36885445     0.60874669
O       3.89137062     3.21201541     4.58220899    -0.58381521     0.36885445    -0.60874669
O       1.04473224     1.74571367     0.09633587    -0.58453821    -0.36824124     0.60842711
O       4.64862189     3.21199543     9.26069332     0.58453821     0.36824124    -0.60842711
O       3.89135759     0.73316073     0.09630550    -0.58476035     0.36804558     0.60852969
O       1.80199648     4.22454831     9.26072369     0.58476035    -0.36804558    -0.60852969
O       4.64860881     0.73314075     4.77485084     0.58358870     0.36923832     0.60865902
O       1.04474515     4.22456835     4.58217862    -0.58358870    -0.36923832    -0.60865902
O       0.20686776     3.01555983     2.52756709     0.31402874    -0.22597383     0.35354841
O       5.48648631     1.94214921     6.82946237    -0.31402874     0.22597383    -0.35354841
O       3.05353723     1.94210314     2.15097741     0.31326718     0.22653253    -0.35548574
O       2.63981684     3.01560590     7.20605189    -0.31326718    -0.22653253     0.35548574
O       0.20685468     0.53670515     2.15094751     0.31309775    -0.22662817    -0.35538778
O       5.48649939     4.42100389     7.20608179    -0.31309775     0.22662817     0.35538778
O       2.63980376     0.53675122     6.82949221    -0.31425937    -0.22628184    -0.35360523
O       3.05355031     4.42095782     2.52753719     0.31425937     0.22628184     0.35360523
