# total energy = -19073.34749147 eV

CRYSTAL
PRIMVEC
        5.17600016     0.00000000     0.00000000
        0.00000000     5.50899976     0.00000000
        0.00000000     0.00000000     9.26300011
PRIMCOORD
22 1
Ti      1.51961799     3.23382599     3.45887602     1.99397660     0.57347655    -0.81299186
Ti      3.71592498     2.08166101     5.88872698    -0.44191109     0.95287253    -2.06667174
Ti      4.39938000     2.26793299     1.26972202    -0.01852172    -0.17682691    -0.71609029
Ti      0.92135300     3.20874198     7.95930099     0.31873592    -1.03742148     0.94507282
Ti      1.78207800     0.61945399     1.32863898     0.12203386    -0.54869881    -0.29842600
Ti      3.20862498     5.12265301     8.18835901     0.96857323    -0.35997103     0.20741560
Ti      1.46470003     0.19895498     5.84373401    -0.74846203     1.50686087    -1.97772131
Ti      4.18138898     5.05967298     3.40267798    -0.76525854    -1.30062875    -0.02063645
O       3.32488400     3.25856698     4.26760798     0.31298410     0.10587627     2.52224902
O       1.05445399     1.93932302     0.10787299    -1.49665436    -0.10622568    -0.64513013
O       4.49203401     3.72696701     8.63224501    -1.10577172    -0.04246333    -0.02433421
O       3.50855698     0.79323098     0.32540300     0.68880728     0.45190009    -0.12102136
O       1.82081901     4.57266703     9.13167202    -1.44722000    -0.15354377     1.11528249
O       3.34901301     0.69669302     4.67601503    -0.22940214    -0.65485739     0.47672744
O       0.66998899     4.57358801     4.54310300    -1.00881127     0.61450237     0.72380129
O       0.01714100     3.63889599     2.32963601    -0.97604563    -0.08516165    -0.78859800
O       0.26144298     1.61393600     6.43734801    -0.23484876     0.53534836     0.11629335
O       2.52529300     2.09582798     2.17190801     1.04580251     0.12379352     0.15620203
O       2.03329500     4.29063698     6.75133400     1.07775722    -3.07523387     0.44262534
O       0.06935402     0.95315200     2.30161099    -0.07746634    -0.88097237     1.27259318
O       2.64119001     1.09383102     7.10053199     1.09044948     1.90236122     0.55711532
O       2.37076901     4.69170799     2.61401200     0.93125262     1.65501355    -1.06375576
