# total energy = -19955.08816166 eV

CRYSTAL
PRIMVEC
        5.11171385     0.00000000     0.00000000
        1.33920389     5.27300542     0.00000000
        0.00000000     0.00000000     9.22228773
PRIMCOORD
24 1
Ti      2.64636145     3.12477828     3.42140314     1.56019329    -1.76544247     0.88356250
Ti      3.80455643     2.14822748     5.80088510    -1.56019329     1.76544247    -0.88356250
Ti      4.95411648     2.14822931     1.18970416    -2.85937939    -0.34110915     1.21742397
Ti      1.49680143     3.12477667     8.03258419     2.85937939     0.34110915    -1.21742397
Ti      1.97675962     0.48827561     1.18974113     1.56019329    -1.76544247    -0.88356250
Ti      4.47415829     4.78473036     8.03254722    -1.56019329     1.76544247     0.88356250
Ti      0.82719949     0.48827359     5.80084813     2.85937939     0.34110915     1.21742397
Ti      5.62371842     4.78473233     3.42144012    -2.85937939    -0.34110915    -1.21742397
O       2.08944617     1.85671496     4.70606305    -0.05286447     0.55683405    -0.76115532
O       4.36147166     3.41629081     4.51622519     0.05286447    -0.55683405     0.76115532
O       1.40955900     1.85673624     0.09494865     0.62547378    -0.68866458     0.24984499
O       5.04135895     3.41626962     9.12733934    -0.62547378     0.68866458    -0.24984499
O       3.69186981     0.77978799     0.09491872     0.05286447    -0.55683405    -0.76115532
O       2.75904808     4.49321778     9.12736926    -0.05286447     0.55683405     0.76115532
O       4.37175709     0.77976674     4.70609298    -0.62547378     0.68866458     0.24984499
O       2.07916075     4.49323908     4.51619527     0.62547378    -0.68866458    -0.24984499
O       1.00030011     3.20734093     2.49117014    -0.20776038    -0.27676342    -0.53342389
O       5.45061773     2.06566485     6.73111811     0.20776038     0.27676342     0.53342389
O       3.26619922     2.06561567     2.12000334     1.12424561    -0.66513461    -1.09120847
O       3.18471867     3.20739014     7.10228475    -1.12424561     0.66513461     1.09120847
O       0.33069825     0.57083810     2.11997388    -0.20776038    -0.27676342     0.53342389
O       6.12021964     4.70216772     7.10231421     0.20776038     0.27676342    -0.53342389
O       2.51511681     0.57088727     6.73114751    -1.12424561     0.66513461    -1.09120847
O       3.93580108     4.70211850     2.49114068     1.12424561    -0.66513461     1.09120847
