# total energy = -4985.53108100 eV

CRYSTAL
PRIMVEC
        4.33558896     0.00000000     0.00000000
       -0.00000965     4.33558896     0.00000000
       -2.16782848    -2.16783331     5.53317576
PRIMCOORD
6 1
Ti     -0.00019093     3.25185593     1.38329379    -0.00158586     0.00158586     0.00000000
Ti      2.16794163    -1.08410040     4.14988161     0.00158586    -0.00158586     0.00000000
O       0.00004331     1.08388987     0.90130906    -0.00039312    -0.00235925    -1.19380992
O       2.16770728     1.08386554     4.63186640     0.00039312     0.00235925     1.19380992
O      -0.00002449    -1.08387105     3.66789688    -0.00235925    -0.00039312    -1.19380992
O       2.16777501     3.25162640     1.86527858     0.00235925     0.00039312     1.19380992
