# total energy = -19074.82633616 eV

CRYSTAL
PRIMVEC
        7.60600008     0.00000000     0.00000000
        0.00000000     7.60600008     0.00000000
       -1.89786986    -1.89786986     4.85670466
PRIMCOORD
22 1
Ti      3.71866401     6.78763900     1.27724999     0.69101406    -0.81663332    -0.43535966
Ti      3.88455499     2.96356897     1.15358503    -0.04713991     0.94943239     0.09517328
Ti     -0.01350201     6.58904899     1.10564601    -0.56301498    -2.70480770     1.14486947
Ti     -0.00498300     2.61475100     1.15943302     0.28414043     1.84654512    -1.18436728
Ti      5.71447823     2.70425021     3.52502784    -0.37812097     0.31217575     1.48214459
Ti      6.09502023    -1.17755977     3.76246083    -0.97019045     0.50955221    -1.88243131
Ti      1.87273823     3.05856121     3.54014881     0.95161191    -1.33621001     0.48422812
Ti      1.44680124    -0.82719776     3.84495782     0.73603306     0.64817200    -0.65335998
O       3.76681501     4.92972303     0.88860899    -0.52461683     0.06905291    -0.52149730
O       4.13639102     1.12913402     0.79789499    -0.95316486    -0.37953096     0.76035236
O       0.27174898     4.69168402     0.73304099    -0.37722160    -1.03885642    -0.62344724
O       7.10992700     0.73941000     0.65909201     1.10694028     1.88314299     0.77895713
O       5.47964625     4.53471221     4.07849983     1.21250082     1.99429285    -0.89043969
O       5.69468224     0.76923121     3.90323283     0.56891155    -0.19597881     0.56266402
O       2.00762424     4.98596324     4.27622680    -0.55671577    -0.95049657    -1.86381497
O       1.97043023     1.16785323     3.94937179    -0.87887358    -0.86734655     1.09513712
O       3.84633320     2.91026421     3.20436283    -0.42566377    -0.15362450    -0.78868773
O       0.04221924     2.95786323     3.06666879    -0.26797538    -0.19331361     0.71383903
O       5.76424301     6.34523402     1.89300599    -0.04773820     0.79878368     0.52139369
O       5.77207499     3.07335701     1.50035398    -0.03160453    -0.57485106     0.63771070
O       1.83043400     6.77097299     1.92577201     0.36454862     0.12976697     0.28049795
O       1.92751400     2.71513798     1.53829202     0.10633984     0.07073236     0.28643797
