# total energy = -19073.02789635 eV

CRYSTAL
PRIMVEC
        5.17600016     0.00000000     0.00000000
        0.00000000     5.50899976     0.00000000
        0.00000000     0.00000000     9.26300011
PRIMCOORD
22 1
Ti      1.80827502     3.42335701     3.26221402    -0.01058009     0.82143640     1.97082535
Ti      3.70442702     2.47919102     6.09762701     0.69321364    -0.38464926     0.34049158
Ti      4.37357800     2.18358298     1.52415097     1.93073644    -0.15480386    -1.38261972
Ti      1.18770701     2.80174498     7.88398901     0.19160382     0.85364822    -0.62885067
Ti      1.85051898     0.50605803     1.53588902    -0.87748235     2.03108740    -1.74271237
Ti      3.04918700     0.03937798     7.72387500     0.84579607    -1.72188000    -0.79774367
Ti      0.54957597     0.02779699     6.26722800    -0.70706417    -1.17917571    -1.07134026
Ti      4.34395201     5.02519999     3.60175399     0.04242836    -0.13445306     1.09124112
O       3.39800699     3.46658899     4.57112903    -0.63733429     0.77313358    -0.42304304
O       0.75913599     2.12218699     0.31214600    -0.07719252     0.39740528    -0.51394983
O       0.19017202     3.44834899     6.37861002    -0.20146838    -0.00429400     0.41605735
O       3.13234699     0.74231101     0.01834700     0.19020360     1.13190056     3.43470585
O       1.31486799     4.98498501     7.94653099    -2.20859000    -1.87887598     1.02279627
O       4.28394300     0.85130099     5.14808802    -0.85969751    -1.00129901    -2.73036550
O       0.88263998     4.86211597     4.40259501     1.17848408     0.10540576     0.53070109
O       0.15034301     3.64911001     2.50608201    -1.77955475    -1.54472347    -1.25663536
O       4.58129600     1.10356502     7.30377299     0.59656557     1.47343600     1.48501703
O       2.71396803     2.05687800     2.38503499    -0.83362909    -1.71156704     0.46955149
O       3.05713302     3.42445601     7.64247701     0.14559983     0.44014577     0.49227491
O       5.13714701     0.66097498     2.23052899     0.36156254     0.44682627    -0.07555807
O       1.94026098     1.38229602     6.69457202     0.99725287     0.55971754    -0.78261632
O       2.74786601     4.57832001     2.18483602     1.01914633     0.68157810     0.15177253
