# total energy = -19517.53495671 eV

CRYSTAL
PRIMVEC
        5.17600016     0.00000000     0.00000000
        0.00000000     5.50899976     0.00000000
        0.00000000     0.00000000     9.26300011
PRIMCOORD
23 1
Ti      1.85647497     3.24503899     3.37573201    -1.28299072     0.33614667     1.60407303
Ti      3.40804299     2.21862499     5.79634502    -0.72065889     0.17719535    -1.14317125
Ti      4.35848402     2.01269201     1.49414398     2.17418555    -0.32895992    -0.78588805
Ti      0.95225399     3.33595000     7.83529798    -0.22937848     0.23756565     1.83536082
Ti      1.82619699     0.44728802     1.27898998     0.46406064     0.68288242    -1.70762759
Ti      3.30253098     5.18917699     7.86258702     0.08744942     1.32267186     1.55241338
Ti      0.68928999     0.59717198     5.79989903    -0.13368739    -0.67792868    -2.44401212
Ti      4.34891702     4.87126503     3.43728400     1.39182093     0.06785967     1.60124302
O       1.77495099     1.95780501     4.73789701    -1.15154817    -0.25469589     0.58180229
O       3.41309198     3.69933300     4.57401701     0.51541073    -0.31634402     0.01575007
O       0.60950800     2.44082700     0.24875300     0.10093975    -0.11608664    -1.05592855
O       3.52961702     1.00748702     0.17591000    -1.18091558    -1.23624805    -1.42161694
O       1.58595200     4.79853602     9.12755899     0.77619474     0.37670121    -0.68330177
O       4.18892700     0.78540800     4.77386900     0.33571395     0.29197587    -0.26034357
O       0.94330401     4.70603901     4.40364400    -0.50959412     0.27423011     0.56473813
O       0.03040398     3.18335999     2.70895000     0.23169145     1.30851587     0.00749657
O       5.16373701     2.03405897     6.84507400    -1.06983796     0.70029883    -0.02516545
O       2.74545301     1.83696299     2.41474602    -0.40276115     0.86962069    -0.54047360
O       2.72585102     3.61083398     7.13218102    -0.61020837    -2.35627268     0.34643545
O       0.23067498     0.63407500     2.23857302    -0.97438984    -0.60192504    -0.39845480
O       5.06759301     4.81162601     7.13882801    -0.20254053    -0.33486986     0.48794671
O       2.36158598     0.59364898     6.63602199     1.27381111     0.74574926     1.26460681
O       2.69241898     4.75010698     2.30282000     1.11723293    -1.16808294     0.60411742
