# total energy = -39481.10165047 eV

CRYSTAL
PRIMVEC
        5.93188753     0.00000000     0.00000000
        0.00000000     9.29428401    -0.00002646
        0.00000000    -0.00002646     9.29428401
PRIMCOORD
47 1
Ti      4.44891576     6.97845661     6.94106939     0.00000000    -0.01628512    -0.01393487
Ti      4.44891576     7.04926489     2.40210966     0.00000000    -0.00414745    -0.00414745
Ti      4.44891576     2.41205145     7.05920668     0.00000000     0.01058524     0.01058524
Ti      4.44891576     2.29394062     2.33132784     0.00000000    -0.01393487    -0.01628512
Ti      1.48297199     6.93960120     6.97966115     0.00000000     0.00453748    -0.02680016
Ti      1.48297199     7.02769938     2.38054415     0.00000000    -0.01528239    -0.01528239
Ti      1.48297199     2.14107111     6.78822634     0.00000000    -0.00042603    -0.00042603
Ti      1.48297199     2.33253237     2.29247243     0.00000000    -0.02680016     0.00453748
Ti      2.96317971     4.64896710     4.63530449    -0.00028462    -0.01026333    -0.00296654
Ti      3.08410019     4.76598757     0.11883234     0.01731947     0.00368825     0.00368825
Ti      3.01005138    -0.00486304     4.64229219     0.01369524     0.00653626     0.00653626
Ti      2.96317971    -0.01182429     0.00183832    -0.00028462    -0.00296654    -0.01026333
Ti      0.00276406     4.64896710     4.63530449     0.00028462    -0.01026333    -0.00296654
Ti     -0.11815643     4.76598757     0.11883234    -0.01731947     0.00368825     0.00368825
Ti     -0.04410761    -0.00486304     4.64229219    -0.01369524     0.00653626     0.00653626
Ti      0.00276406    -0.01182429     0.00183832     0.00028462    -0.00296654    -0.01026333
O       4.44891576     5.54572195     5.54188185     0.00000000    -0.00889551    -0.00583126
O       4.44891576     5.62864402     0.98148879     0.00000000    -0.00531396    -0.00531396
O       4.44891576     0.92019373     5.56734896     0.00000000     0.00964293     0.00964293
O       4.44891576     0.89475308     0.89859317     0.00000000    -0.00583126    -0.00889551
O       1.48297199     5.56840362     5.51976784     0.00000000    -0.01571690     0.00570785
O       1.48297199     5.45336652     0.80621129     0.00000000    -0.00139380    -0.00139380
O       1.48297199     0.87406313     5.52121836     0.00000000     0.03162535     0.03162535
O       1.48297199     0.87263907     0.92127485     0.00000000     0.00570785    -0.01571690
O       4.44891576     8.37812277     8.36058381     0.00000000    -0.00385151     0.01145684
O       4.44891576     8.38509914     3.73794391     0.00000000     0.01809029     0.01809029
O       4.44891576     3.76289064     8.41004587     0.00000000    -0.00577007    -0.00577007
O       4.44891576     3.71345504     3.73099400     0.00000000     0.01145684    -0.00385151
O       1.48297199     8.38459851     8.35693542     0.00000000    -0.00593077     0.00815888
O       1.48297199     8.36427357     3.71711833     0.00000000     0.00274260     0.00274260
O       1.48297199     3.70980665     3.73746973     0.00000000     0.00815888    -0.00593077
O       2.94102694     5.98976484     7.87520172    -0.00169899    -0.00423872    -0.00196407
O       2.96758102     6.04749665     3.21269048    -0.00912048     0.00552350     0.01738658
O       2.92289284     1.48576779     7.91791694    -0.00350621     0.00211808     0.00265158
O       2.97368785     1.40440108     3.21929189     0.00877621    -0.00033090    -0.00462464
O       0.02491683     5.98976484     7.87520172     0.00169899    -0.00423872    -0.00196407
O      -0.00163726     6.04749665     3.21269048     0.00912048     0.00552350     0.01738658
O       0.04305092     1.48576779     7.91791694     0.00350621     0.00211808     0.00265158
O      -0.00774409     1.40440108     3.21929189    -0.00877621    -0.00033090    -0.00462464
O       2.97368785     7.86642066     6.05152986     0.00877621    -0.00462464    -0.00033090
O       2.96758102     7.85984571     1.40034142    -0.00912048     0.01738658     0.00552350
O       2.92289284     3.27076170     6.13292302    -0.00350621     0.00265158     0.00211808
O       2.94102694     3.22807295     1.34263607    -0.00169899    -0.00196407    -0.00423872
O      -0.00774409     7.86642066     6.05152986    -0.00877621    -0.00462464    -0.00033090
O      -0.00163726     7.85984571     1.40034142     0.00912048     0.01738658     0.00552350
O       0.04305092     3.27076170     6.13292302     0.00350621     0.00265158     0.00211808
O       0.02491683     3.22807295     1.34263607     0.00169899    -0.00196407    -0.00423872
