# total energy = -19920.86398756 eV

CRYSTAL
PRIMVEC
        7.60188680     0.00000000     0.00000000
        0.00002868     4.85442364     0.00000000
        0.00000000     0.00000000    11.61020207
PRIMCOORD
24 1
Ti      2.75533512     2.87672693     4.30730218     0.52131476    -0.30009850     1.84447590
Ti      4.84657987     1.97769665     7.30290002    -0.52131476     0.30009850    -1.84447590
Ti      6.55614773     1.97769828     1.49775253     0.52118569     0.30025122    -1.84497289
Ti      1.04576732     2.87672549    10.11244973    -0.52118569    -0.30025122     1.84497289
Ti      2.75532102     0.44951518     1.49779910     0.52123685    -0.29732428    -1.84460317
Ti      4.84659397     4.40490853    10.11240322    -0.52123685     0.29732428     1.84460317
Ti      1.04575317     0.44951342     7.30285345    -0.52095146    -0.29748883    -1.84569897
Ti      6.55616182     4.40491029     4.30734869     0.52095146     0.29748883     1.84569897
O       2.40605513     1.70932504     5.92459727     0.92005418     1.24910023    -1.59607536
O       5.19585992     3.14509848     5.68560493    -0.92005418    -1.24910023     1.59607536
O       1.39495265     1.70934464     0.11953354    -0.91988654     1.24925887    -1.59678190
O       6.20696246     3.14507894    11.49066828     0.91988654    -1.24925887     1.59678190
O       5.19584583     0.71788660     0.11949586    -0.92017348    -1.24948847    -1.59663123
O       2.40606922     4.13653692    11.49070596     0.92017348     1.24948847     1.59663123
O       6.20694831     0.71786706     5.92463489     0.92021102    -1.24953397    -1.59704749
O       1.39496662     4.13655652     5.68556725    -0.92021102     1.24953397     1.59704749
O       0.27621147     2.95273565     3.13620523    -2.08192867     0.70940002     0.45074978
O       7.32570358     1.90168787     8.47399691     2.08192867    -0.70940002    -0.45074978
O       4.07716362     1.90164274     2.66893274    -2.08189576    -0.70910717    -0.45057880
O       3.52475136     2.95278084     8.94126921     2.08189576     0.70910717     0.45057880
O       0.27619732     0.52552376     2.66889568    -2.08176927     0.70913520    -0.45000544
O       7.32571767     4.32889976     8.94130627     2.08176927    -0.70913520     0.45000544
O       3.52473727     0.52556895     8.47403390     2.08187237     0.70933292    -0.45141466
O       4.07717772     4.32885456     3.13616817    -2.08187237    -0.70933292     0.45141466
