# total energy = -19923.49292965 eV

CRYSTAL
PRIMVEC
        6.25275137     0.00000000     0.00000000
        2.26000522     6.25931225     0.00000000
        0.00000000     0.00000000    11.37177696
PRIMCOORD
24 1
Ti      3.60559873     3.70926255     4.21884816    -0.04605722    -2.27983479     0.72942841
Ti      4.90715809     2.55004954     7.15292892     0.04605722     2.27983479    -0.72942841
Ti      6.31332337     2.55005167     1.46699498    -0.41805793    -0.92368638     0.13162485
Ti      2.19943347     3.70926060     9.90478223     0.41805793     0.92368638    -0.13162485
Ti      2.47559627     0.57960658     1.46704057    -0.04605722    -2.27983479    -0.72942841
Ti      6.03716056     5.67970563     9.90473664     0.04605722     2.27983479     0.72942841
Ti      1.06943089     0.57960428     7.15288333     0.41805793     0.92368638     0.13162485
Ti      7.44332595     5.67970799     4.21889375    -0.41805793    -0.92368638    -0.13162485
O       2.77482160     2.20401018     5.80293074     1.83134115     2.12798743    -0.79142107
O       5.73793521     4.05530191     5.56884634    -1.83134115    -2.12798743     0.79142107
O       1.94317238     2.20403543     0.11707885    -0.37351792    -0.48700466     1.36737642
O       6.56958451     4.05527671    11.25469792     0.37351792     0.48700466    -1.36737642
O       4.60793274     0.92564582     0.11704195    -1.83134115    -2.12798743    -0.79142107
O       3.90482407     5.33366627    11.25473482     1.83134115     2.12798743     0.79142107
O       5.43958203     0.92562056     5.80296764     0.37351792     0.48700466     1.36737642
O       3.07317473     5.33369153     5.56880944    -0.37351792    -0.48700466    -1.36737642
O       1.60184016     3.80726843     3.07180066     0.57481840     2.29503078     2.22198366
O       6.91091665     2.45204365     8.29997642    -0.57481840    -2.29503078    -2.22198366
O       4.23888600     2.45198535     2.61412403     0.78173058     1.89014333     1.16601089
O       4.27387082     3.80732674     8.75765287    -0.78173058    -1.89014333    -1.16601089
O       0.47183769     0.67761235     2.61408769     0.57481840     2.29503078    -2.22198366
O       8.04091913     5.58169974     8.75768920    -0.57481840    -2.29503078     2.22198366
O       3.14386835     0.67767065     8.30001263    -0.78173058    -1.89014333     1.16601089
O       5.36888847     5.58164143     3.07176439     0.78173058     1.89014333    -1.16601089
