# total energy = -39033.23448094 eV

CRYSTAL
PRIMVEC
        5.93200024     0.00000000     0.00000000
        0.00000000     9.29399984     0.00000000
        0.00000000     0.00000000     9.29399984
PRIMCOORD
46 1
Ti      4.58158499     6.99443502     6.95403202    -1.25564472    -0.40170674    -1.00886140
Ti      4.55708302     6.97031702     2.31204102    -1.42396693     0.30048237     0.82839483
Ti      4.48100802     2.36947797     6.96476003    -0.37537117     0.06514329    -0.41384595
Ti      4.30436998     2.41574098     2.13681699    -0.13189507    -0.70088092     0.95207085
Ti      1.52734202     6.95599299     6.94317298     1.47234457    -0.12624713    -0.46552822
Ti      1.47291497     7.08918399     2.40156998     1.43472752    -0.62369689    -0.56904885
Ti      1.50110901     2.36319601     7.01486099     0.50155428    -0.77517349    -0.70572746
Ti      1.20389100     2.02978502     2.49716299     1.67573228     0.94818232    -0.24142308
Ti      2.97181901     4.65282500     4.69807801    -0.74626503     0.30647227    -0.26567939
Ti      2.87875800     4.78396401     9.06974600     0.27357602     0.43116953     0.09144157
Ti      2.96919201     9.26417901     4.56757301     0.63194860     0.22318135     1.40511611
Ti      2.87711798     9.14034502     9.11060600    -0.36493995    -0.49038720     0.60818157
Ti      5.89456100     4.59544599     4.64322302     0.68333237     0.02298464    -0.04941431
Ti      5.88351602     4.73925202     0.01183801     0.12519323     0.01434470    -0.30626529
Ti      0.00634902     9.17909900     4.82579701    -0.55651651     1.12700775    -0.51317515
Ti      5.86797101     0.12158398     9.26868903    -0.06104007    -0.60632240     0.22444068
O       4.55358997     5.52225099     5.61133798    -0.83811849    -0.12826133    -0.60082049
O       4.51893701     5.82736401     0.79422398    -0.08585174    -1.55772348    -0.02035183
O       4.57070198     0.93579001     5.57653601    -0.10071940     0.40238062    -0.41110232
O       4.45301502     0.75302198     1.05944101    -0.37900491     1.32512006    -0.71557299
O       1.52738700     5.54940202     5.62374899     0.14026916    -0.23686065    -0.97894686
O       1.49993101     5.76114902     0.74787499    -0.01494711    -1.46451222     0.57244913
O       1.52228599     0.67995699     5.70162203     0.22307928     2.35040054    -0.87303280
O       1.47815901     0.75977100     0.80281698     0.53916053     1.62187947     1.22767419
O       4.58786500     8.32096199     8.19654898    -0.46278409     1.52368721     2.23021453
O       4.48565700     8.12314199     4.03755902    -0.00619096     1.71318144    -1.14994714
O       4.46777002     3.92121200     8.15733102    -0.00196869    -0.61940135     1.76735049
O       4.42852401     3.63465399     3.78814598     0.23174416     0.31883465    -0.72376427
O       1.40218599     8.14062299     8.48623998     0.71324074     1.38591151     0.12407146
O       1.57076001     8.20548800     3.96178698    -0.35306273     0.65456171    -1.78864283
O       1.51833500     3.74180302     8.34352400     0.19510721     0.62280523     1.51810662
O       1.43352000     3.74054601     3.78118497     0.45723924    -0.66660194    -0.87411241
O       3.01125801     6.00036899     7.70712501     0.72016215     0.56311037     0.57562522
O       3.04478398     6.09103499     3.19170401    -0.45667514    -0.64472570    -0.00469124
O       2.94097401     1.39594699     7.81660099     1.35334899    -0.57167240     0.99371220
O       2.85470901     1.55447198     3.36048700     0.23679766    -0.69688671    -1.29578351
O       0.07393702     5.93993298     7.80232199    -0.16678444     0.90127149    -0.31055955
O       0.04070500     6.15041498     3.43256898     0.00330953    -0.25948791    -2.08749049
O       0.01122798     1.60631098     8.01437998    -0.67267360    -1.05468208     0.19905745
O       3.06356501     8.04060600     6.12032897    -0.12726785    -1.59268484     0.95944067
O       2.93566699     7.98890898     1.37038799     0.38759857    -0.69818229     0.93228724
O       2.93950702     3.30910399     6.15229001     0.55986641    -0.29113178    -0.85821476
O       0.27379298     8.05786300     6.14689801    -1.98452471    -2.67470573     1.53612029
O       0.02420002     8.03647398     1.51882099     0.16204435    -0.91745248     0.81180016
O       0.16644799     3.17944699     6.05015901    -1.52424282     0.26170060    -0.50515100
O       0.03585499     3.05105102     1.39765300    -0.63092015     0.71557427     0.17959831
