# total energy = -4985.46381960 eV

CRYSTAL
PRIMVEC
        3.45901472     0.00000000     0.00000000
        0.68494622     3.39052083     0.00000000
       -2.07201198    -1.69528620     4.43693412
PRIMCOORD
6 1
Ti      0.51359043     2.54302028     1.10923365     0.00127887    -0.00140768     0.00107909
Ti      1.55835853    -0.84778565     3.32770061    -0.00127887     0.00140768    -0.00107909
O       0.17127280     0.84762525     0.72274037     0.00092226     0.00251300     1.46862187
O       1.90067606     0.84760930     3.71419395    -0.00092226    -0.00251300    -1.46862187
O      -0.17125010    -0.84760668     2.94120733     0.00254591     0.00088832     1.47106133
O       2.24319884     2.54284114     1.49572693    -0.00254591    -0.00088832    -1.47106133
