# total energy = -4990.47164207 eV

CRYSTAL
PRIMVEC
        3.84597795     0.00000000     0.00000000
        0.38362977     3.82679691     0.00000000
       -2.11483797    -1.91342932     4.91448595
PRIMCOORD
6 1
Ti      0.28757496     2.87024325     1.22862125     0.00006453    -0.00006453     0.00000000
Ti      1.82719445    -0.95687597     3.68586412    -0.00006453     0.00006453     0.00000000
O       0.09594799     0.95669317     0.80052952    -0.00024914    -0.00028745    -0.24992675
O       2.01882131     0.95667401     4.11395595     0.00024914     0.00028745     0.24992675
O      -0.09592670    -0.95667392     3.25777239    -0.00028745    -0.00024914    -0.24992675
O       2.21069595     2.87004105     1.65671308     0.00028745     0.00024914     0.24992675
