# total energy = -19958.89556279 eV

CRYSTAL
PRIMVEC
        5.93400000     0.00000000     0.00000000
        0.00000000     9.29699974     0.00000000
        0.00000000     0.00000000     4.64899994
PRIMCOORD
24 1
Ti      4.40662200     6.79379598     2.12397402     0.32510300     3.48965446     0.58780891
Ti      4.47200402     2.54435597     2.24888203     0.20973242    -4.24414419    -0.28243527
Ti      1.49158202     6.96014602     2.33258702    -0.06402332     2.44655880     0.08399000
Ti      1.48933201     2.30870303     2.48634301    -0.71460034    -2.83204676     0.37926717
Ti      3.06799501     4.64295399     4.63654698    -3.98208080     0.00055690     0.53633078
Ti      2.94592499     0.15454399     0.14259300     1.86926237    -0.36863951    -1.54109050
Ti      5.90585100     4.61941698     4.46400302     3.52463356    -0.18977114     0.42017215
Ti      5.92978198     9.26330698     0.18306802    -1.43356641    -0.19980976    -2.33444452
O       4.55300698     5.52125799     0.77029200    -0.58796523    -0.22914451     0.32039583
O       4.52059800     0.80208100     1.08790900    -0.98465189     1.73970238     0.75928150
O       1.48749502     5.58080599     0.88538403     0.35562484    -1.19066289    -1.21241906
O       1.44707700     0.72717601     1.12205998    -0.01290746     1.27129529     0.42497857
O       4.44304998     8.62802403     3.83489800    -0.10377028    -1.55516086    -1.04712740
O       4.38904400     3.71833999     3.69531501     0.53209668     1.08494217     0.88340849
O       1.41469500     8.40366599     3.65568599     0.52838092    -0.68375531    -0.22975849
O       1.56024700     3.69215402     3.73498002    -0.75120746     1.92697337     0.94068035
O       3.06290301     5.93760502     3.16201399    -0.23908414     0.51991762    -0.22783556
O       2.90159798     1.50086998     3.45672598    -0.37498422     0.74150900    -1.12592763
O       0.03912102     6.05591498     3.08493398    -0.97944077    -1.45404628     1.34408916
O       5.82590301     1.53828800     3.27457200     0.44046305     0.75600848    -0.02230818
O       3.02722201     7.94083302     1.28280101     0.29589140    -3.31642580     2.36796015
O       2.81111100     3.09318200     1.40958098     1.55570414     1.64325692    -1.22211315
O       5.92901298     7.73349899     1.28729002    -0.08308857    -0.69598683     1.13136989
O       5.86386698     3.20755800     1.35529702     0.67447877     1.33921794    -0.93427342
