# total energy = -4984.93467223 eV

CRYSTAL
PRIMVEC
        4.06898364     0.00000000     0.00000000
        0.00000000     3.43295473     0.00000000
        0.00000000    -0.00007755     5.38925357
PRIMCOORD
6 1
Ti      2.03449171     1.71643854     2.69462695     0.00000000     0.00000000     0.00000000
Ti      0.00000000     0.00000000     0.00000000     0.00000000     0.00000000     0.00000000
O       2.03449171     0.66901719     1.05028620     0.00000000    -0.01433930     1.42200904
O       2.03449171     2.76385993     4.33896765     0.00000000     0.01433930    -1.42200904
O       0.00000000     1.04739044     3.74491418     0.00000000     0.01444755     1.42211162
O       0.00000000     2.38548663     1.64433972     0.00000000    -0.01444755    -1.42211162
