# total energy = -19949.21630294 eV

CRYSTAL
PRIMVEC
        4.79355290     0.00000000     0.00000000
        0.50893290     5.07634189     0.00000000
        0.00000000     0.00000000     8.59017483
PRIMCOORD
24 1
Ti      2.03902559     3.00823553     3.18689367     1.12699155     0.26712589    -0.27778646
Ti      3.26346036     2.06810640     5.40328146    -1.12699155    -0.26712589     0.27778646
Ti      4.34146977     2.06810812     1.10815958    -1.53919405    -0.85454630     1.51114922
Ti      0.96101619     3.00823405     7.48201570     1.53919405     0.85454630    -1.51114922
Ti      1.78455924     0.47006463     1.10819404     1.12701958     0.26705339     0.26874774
Ti      3.51792672     4.60627750     7.48198124    -1.12701958    -0.26705339    -0.26874774
Ti      0.70654977     0.47006276     5.40324705     1.53949950     0.85304787     1.52030775
Ti      4.59593614     4.60627932     3.18692813    -1.53949950    -0.85304787    -1.52030775
O       1.69639374     1.78746629     4.38350058    -1.71031980    -1.30647750    -0.42147004
O       3.60609221     3.28887569     4.20667455     1.71031980     1.30647750     0.42147004
O       1.05882073     1.78748682     0.08844067     1.66808813    -1.50850381    -0.13577101
O       4.24366528     3.28885521     8.50173426    -1.66808813     1.50850381     0.13577101
O       3.35162585     0.75070460     0.08841282     1.70970325     1.30625150    -0.42145462
O       1.95086010     4.32563738     8.50176212    -1.70970325    -1.30625150     0.42145462
O       3.98919892     0.75068411     4.38352848    -1.66920039     1.50940189    -0.13623304
O       1.31328699     4.32565787     4.20664670     1.66920039    -1.50940189     0.13623304
O       0.48372269     3.08771901     2.32042059    -0.88717053    -0.46605813    -1.25326413
O       4.81876322     1.98862297     6.26975454     0.88717053     0.46605813     1.25326413
O       2.77031324     1.98857569     1.97469429    -0.03897511    -1.21829377    -0.59873404
O       2.53217271     3.08776624     6.61548074     0.03897511     1.21829377     0.59873404
O       0.22925633     0.54954792     1.97466683    -0.88780842    -0.46635124     1.25153378
O       5.07322958     4.52679402     6.61550815     0.88780842     0.46635124    -1.25153378
O       2.27770636     0.54959519     6.26978195     0.03833079     1.21872803    -0.59740941
O       3.02477960     4.52674679     2.32039317    -0.03833079    -1.21872803     0.59740941
