# total energy = -19908.36531699 eV

CRYSTAL
PRIMVEC
        6.57838893     0.00000000     0.00000000
        2.99884242     6.32664799     0.00000000
        0.00000000     0.00000000    12.09921188
PRIMCOORD
24 1
Ti      4.16146076     3.74916570     4.48872128    -0.09634107    -2.22355229     0.42963535
Ti      5.41577037     2.57748220     7.61049066     0.09634107     2.22355229    -0.42963535
Ti      6.89516757     2.57748434     1.56083636    -0.39382502    -1.29540864     0.37052824
Ti      2.68206368     3.74916381    10.53837578     0.39382502     1.29540864    -0.37052824
Ti      2.66203971     0.58584181     1.56088485    -0.09634107    -2.22355229    -0.42963535
Ti      6.91519147     5.74080629    10.53832728     0.09634107     2.22355229     0.42963535
Ti      1.18264246     0.58583948     7.61044217     0.39382502     1.29540864     0.37052824
Ti      8.39458878     5.74080860     4.48876984    -0.39382502    -1.29540864    -0.37052824
O       3.13804496     2.22772028     6.17413521     1.80214112     2.03316383    -0.85535312
O       6.43918617     4.09892762     5.92507679    -1.80214112    -2.03316383     0.85535312
O       2.26308677     2.22774584     0.12456819     0.00861346    -1.03698697     1.73983582
O       7.31414446     4.09890218    11.97464349    -0.00861346     1.03698697    -1.73983582
O       4.93976509     0.93560360     0.12452888    -1.80214112    -2.03316383    -0.85535312
O       4.63746606     5.39104437    11.97468273     1.80214112     2.03316383     0.85535312
O       5.81472336     0.93557809     6.17417445    -0.00861346     1.03698697     1.73983582
O       3.76250772     5.39106989     5.92503749     0.00861346    -1.03698697    -1.73983582
O       2.06307399     3.84822598     3.26829899     0.65084981     2.99898675     2.81028467
O       7.51415707     2.47842193     8.83091302    -0.65084981    -2.99898675    -2.81028467
O       4.70296401     2.47836306     2.78134547     0.58690516     2.14866040     1.80866504
O       4.87426712     3.84828485     9.31786627    -0.58690516    -2.14866040    -1.80866504
O       0.56365289     0.68490190     2.78130682     0.65084981     2.99898675    -2.81028467
O       9.01357817     5.64174602     9.31790492    -0.65084981    -2.99898675     2.81028467
O       3.37484602     0.68496076     8.83095154    -0.58690516    -2.14866040     1.80866504
O       6.20238511     5.64168714     3.26826034     0.58690516     2.14866040    -1.80866504
