# total energy = -4985.32092847 eV

CRYSTAL
PRIMVEC
        3.66538082     0.00000000     0.00000000
        1.72487874     3.23416294     0.00000000
       -2.69516422    -1.61710213     4.84071992
PRIMCOORD
6 1
Ti      1.29357257     2.42574676     1.21017966     0.00052888    -0.00052888     0.00000000
Ti      1.40152264    -0.80868607     3.63053966    -0.00052888     0.00052888     0.00000000
O       0.43125767     0.80853662     0.78851362     0.00045251     0.00042423    -3.07296950
O       2.26383739     0.80852406     4.05220575    -0.00045251    -0.00042423     3.07296950
O      -0.43122283    -0.80851567     3.20887357     0.00042423     0.00045251    -3.07296950
O       3.12631781     2.42557626     1.63184575    -0.00042423    -0.00045251     3.07296950
