# total energy = -19960.72301607 eV

CRYSTAL
PRIMVEC
        7.60600008     0.00000000     0.00000000
        0.00000000     7.60600008     0.00000000
       -1.89786986    -1.89786986     4.85670466
PRIMCOORD
24 1
Ti      3.89492898     6.73790100     1.20853903    -1.13720655     1.34634916     0.44070576
Ti      3.89525098     2.97514499     1.17931500    -0.87370669    -1.32846147     0.48188379
Ti      0.03296700     6.52055102     1.18572201     0.12092828     1.76826400     0.74132388
Ti      0.04946098     2.83896398     1.31924502     0.31423777    -1.79544623    -1.64978007
Ti      5.70965425     2.65114521     3.64166983    -0.96756818    -0.11113263    -0.31295814
Ti      5.67742423    -1.05529676     3.68857583    -0.42246609    -0.06757119    -0.51772190
Ti      1.92348522     2.91838221     3.62724181     0.75598046     0.88322697    -0.37662741
Ti      1.85240322    -0.77358978     3.64648481     0.21781931    -0.98665298    -0.38570598
O       3.76841201     4.83174999     0.75983900    -0.05477120     0.31377189    -0.04119654
O       3.67963702     0.96449698     0.84135701     0.77252628     1.57765108    -0.87058922
O      -0.00288502     4.63885001     0.75279602     0.18356706    -0.49439555     0.85779207
O      -0.12808201     0.80724698     0.68521897     0.22412597     0.77484208     1.32415513
O       5.59492523     4.60194524     4.09195082     0.35174427    -0.21292444    -0.89983116
O       5.56343723     0.80022321     4.05045179     0.72228665     2.03691507     0.63334368
O       1.92076821     4.99402822     3.94100883     0.00193013    -2.65521316     0.36652966
O       1.86781524     1.13094323     4.05363881     0.19637476    -1.31134203     0.67883962
O       3.77036420     2.73973822     3.18116984     0.33145260     0.74098244     0.14537203
O       3.76902824    -0.70071275     3.18262984    -0.29365094    -0.93223890    -0.10066053
O      -0.00473180     2.63184522     3.21596980     0.13121167     0.92135233    -0.08647626
O      -0.06451777    -0.87622275     3.16746081    -0.29663137    -0.33661769     0.55767634
O       5.63227202     6.58641501     1.66347101     1.05489882    -0.40575417    -0.77218021
O       5.70563203     2.69126500     1.63330003     0.13702648     0.63932818     0.05173884
O       1.81104098     6.90845102     1.69349002     0.06731588    -1.14305041    -0.85098095
O       1.96420297     2.76236499     1.54556498    -1.53742539     0.77811766     0.58534733
