# total energy = -19518.70921376 eV

CRYSTAL
PRIMVEC
        7.60600008     0.00000000     0.00000000
        0.00000000     7.60600008     0.00000000
       -1.89786986    -1.89786986     4.85670466
PRIMCOORD
23 1
Ti      3.81037201     6.60879000     1.23548399     0.49822701     0.09299144    -0.10593540
Ti      3.70635201     2.80506398     1.31298999     1.15071153     0.05038310     0.48149144
Ti     -0.01445897     6.70863400     1.15012500    -0.19701908    -0.24523320    -0.01648978
Ti      0.00109799     2.90359800     1.17785399    -1.13424952     0.21894648    -0.53345602
Ti      5.63556425     2.88780921     3.60844083    -0.58559467    -0.25465912    -0.34949815
Ti      5.75022923    -0.89019478     3.63127779    -0.16809313    -0.01152755    -0.13107206
Ti      1.81765421     2.75109325     3.71535781     1.67379855    -0.18532287     0.31346207
Ti      1.89051621    -1.02524578     3.62822984     0.30147841     0.56190735     0.21721176
O       3.98690898     4.71678099     0.84833199    -1.20647929    -0.06953191     0.26753212
O       3.92265099     0.95209100     0.77584000    -0.58360052    -0.76494024    -0.24620250
O      -0.11384698     4.82744899     0.64722500     0.68440015     0.37017317     2.16224534
O      -0.10307500     1.01055302     0.70982699     0.35794963    -1.65112064     0.17248843
O       5.80300424     4.71988821     3.83738381     0.37928645     1.80518325     1.25907946
O       5.76886521     1.01821524     4.14436482     0.42244603    -0.59477351    -1.50026830
O       1.87127125     4.63502522     3.89946879    -0.45098426     1.79479291     0.96418898
O       2.10122120     0.94891022     4.10332083    -1.19065569    -0.73705996     0.06731562
O       3.80301724     2.83657024     3.27219383    -0.76689351     0.02926354    -1.14032813
O       3.86226022    -0.86077480     3.13008179    -0.63651410    -0.37399538     0.46691971
O       0.00085325    -0.73079378     3.25371982     1.12167297    -0.54287552    -0.53193547
O       5.76439700     6.64374899     1.62561097     0.11884209     0.24847459    -0.44125572
O       5.81248000     2.78623702     1.71910400    -0.03544344     0.09706458    -0.35619459
O       1.92772599     6.61677000     1.62585699    -0.60128895    -0.01369653    -0.23345137
O       1.75417602     2.73370401     1.76342302     0.84800336     0.17555627    -0.78584795
