# total energy = -19876.36537138 eV

CRYSTAL
PRIMVEC
        9.60619645     0.00000000     0.00000000
        0.00003024     3.87803035     0.00000000
        0.00000000     0.00000000    14.86799702
PRIMCOORD
24 1
Ti      3.48180224     2.29811714     5.51592087     0.27133582    -0.19119836     2.35724893
Ti      6.12442473     1.57991307     9.35207628    -0.27133582     0.19119836    -2.35724893
Ti      8.28473651     1.57991439     1.91801830     0.28501769     0.19076024    -2.35868592
Ti      1.32149045     2.29811602    12.94997899    -0.28501769    -0.19076024     2.35868592
Ti      3.48178725     0.35910204     1.91807791     0.27133582    -0.19119836    -2.35724893
Ti      6.12443971     3.51892831    12.94991939    -0.27133582     0.19119836     2.35724893
Ti      1.32147547     0.35910065     9.35201668    -0.28501769    -0.19076024    -2.35868592
Ti      8.28475150     3.51892970     5.51598048     0.28501769     0.19076024     2.35868592
O       3.04043260     1.36552038     7.58702506     0.67660019     0.81783299    -2.38752394
O       6.56579442     2.51250983     7.28097210    -0.67660019    -0.81783299     2.38752394
O       1.76274330     1.36553600     0.15307437    -0.67755458     0.81862438    -2.38977880
O       7.84348380     2.51249421    14.71492239     0.67755458    -0.81862438     2.38977880
O       6.56577944     0.57349465     0.15302614    -0.67660019    -0.81783299    -2.38752394
O       3.04044752     3.30453556    14.71497061     0.67660019     0.81783299     2.38752394
O       7.84346881     0.57347903     7.58707335     0.67755458    -0.81862438    -2.38977880
O       1.76275808     3.30455125     7.28092381    -0.67755458     0.81862438     2.38977880
O       0.34903376     2.35883788     4.01621690    -1.88954092     0.57392417    -0.00209365
O       9.25719320     1.51919233    10.85178026     1.88954092    -0.57392417     0.00209365
O       5.15214463     1.51915629     3.41782889    -1.88727655    -0.57402162     0.00160308
O       4.45408240     2.35887399    11.45016800     1.88727655     0.57402162    -0.00160308
O       0.34901877     0.41982271     3.41778141    -1.88954092     0.57392417     0.00209365
O       9.25720819     3.45820751    11.45021548     1.88954092    -0.57392417    -0.00209365
O       4.45406741     0.41985875    10.85182760     1.88727655     0.57402162     0.00160308
O       5.15215962     3.45817146     4.01616949    -1.88727655    -0.57402162    -0.00160308
