# total energy = -19519.01933238 eV

CRYSTAL
PRIMVEC
        7.60600008     0.00000000     0.00000000
        0.00000000     7.60600008     0.00000000
       -1.89786986    -1.89786986     4.85670466
PRIMCOORD
23 1
Ti      3.81006498     6.61501302     1.23490100     0.91890567     0.82342412     0.34020335
Ti      3.71553001     2.81013699     1.08519702     0.86938415    -0.54324113     0.81336390
Ti      0.01555400     6.62072200     1.24715902    -0.72178246     1.55178783     0.45780051
Ti      0.04658099     2.90324700     1.05710601    -0.42600470    -1.13202809     1.66314184
Ti      5.58265224     2.89894622     3.64613682    -0.77690822    -0.00316966    -0.65912902
Ti      5.72370322    -1.00510879     3.66297979    -0.40451232     0.22619854     0.14454413
Ti      1.92285121     2.88508125     3.68796283     0.76582496    -0.83238673    -0.30236853
Ti      1.92668722    -0.99472379     3.62822782     0.25525690     0.79534303     0.17357267
O       3.83758902     4.70244198     0.78900799    -0.67076430     0.61920877     0.34943542
O       4.04679401     0.92425199     0.73027402    -0.30817202     0.18398641     0.25883408
O       0.05349098     4.85494202     0.78735299     1.00712591    -1.74369093     0.20524456
O      -0.14082301     0.96177002     0.82888800     0.55200525    -0.09730061    -0.27290650
O       5.47354224     4.74359223     4.13179380     0.75881150     0.58662929    -0.87012822
O       5.78112122     0.94275123     4.10573584     0.52279546     0.81198862    -1.54028086
O       1.79678622     4.74743422     4.03511179    -0.05120637    -0.45103414    -0.12005745
O       1.75672623     0.94097124     4.03164779    -0.40152110     0.27211615     0.37513746
O       3.77097625     2.71591222     3.40114681     0.30858032     0.16648233    -1.11445793
O       3.87068620    -0.71935080     3.25266179    -0.70035513    -0.78534195    -0.61620572
O       0.02918423    -0.98564777     3.22656382    -0.47982691    -0.16281285     0.28424379
O       5.70115900     6.50934802     1.62108302     0.01894544     0.12117202     0.55087628
O       5.85048599     3.02452601     1.75130698    -0.01065903    -0.26414829     0.23495778
O       1.94971802     6.83474800     1.67300700    -0.05842320    -0.63321178    -0.44814345
O       1.94677198     2.70525697     1.61873802    -0.96749954     0.49002982     0.09232192
