# total energy = -19517.35271287 eV

CRYSTAL
PRIMVEC
        7.60600008     0.00000000     0.00000000
        0.00000000     7.60600008     0.00000000
       -1.89786986    -1.89786986     4.85670466
PRIMCOORD
23 1
Ti      3.85406602     6.70609099     1.12373202     0.22612758    -1.67347870    -0.30541734
Ti      3.84399599     2.75953098     1.20944799    -0.42877661     2.72426659    -0.32853517
Ti      0.17723099     6.67662000     1.18785597    -2.13045364     0.00230422     0.40436911
Ti     -0.01539901     2.79307299     1.20281603    -0.32462838     0.21703590    -0.16638617
Ti      5.47972520     2.81324522     3.77238581     0.83198255     0.90615094     0.83211419
Ti      5.69136223    -0.91140579     3.48096780     1.03867464    -0.23017604     1.54169188
Ti      1.98747921     2.93964122     3.61216280    -2.10985266    -1.58734363     1.34662709
Ti      1.98712921    -0.90980677     3.58212479    -1.77548160     0.67554938    -0.06681991
O       3.85127302     4.65538801     0.68170000    -0.22672639     0.48777085     2.24330248
O       3.76190699     1.02193001     0.63489702    -0.19592919    -1.70203493     1.16998144
O      -0.09223501     4.70345599     1.09101701     0.11341243    -0.31877012    -1.09063923
O       0.14086598     0.94511501     0.75545201     0.02613373     0.24069880    -0.07192664
O       5.47600021     4.70567721     4.22030081     1.02450066     0.26762906    -1.91882014
O       5.54596120     0.99039523     4.09874281     0.31369193    -1.01357938    -0.08843364
O       1.86028420     4.69841923     4.08887683    -0.61069508     2.28562131    -0.54293671
O       1.81953322     1.00064825     4.06487182     0.11526903    -1.26320865    -0.52951838
O       3.69754221     2.84807022     3.51629181     2.21737727    -0.13976419    -1.86356326
O       3.78265122    -0.99061976     3.31616681     0.22849351     0.36483145    -1.37044889
O      -0.03450278    -0.71473876     3.21127679     0.29681957    -0.90903134    -0.61077890
O       5.67177400     6.71556400     1.47349998    -0.57104274     0.06427915     1.41894120
O       5.70656602     2.66848598     1.86068098     0.08983798     0.10360933    -0.41979188
O       1.91626999     6.40500898     1.44567901     1.73639979     0.72610680     1.44496257
O       1.83654902     2.85021000     1.75875398     0.11486485    -0.22846703    -1.02797371
