# total energy = -4987.29802783 eV

CRYSTAL
PRIMVEC
        3.91771604     0.00000000     0.00000000
        1.67801498     3.54016451     0.00000000
       -2.79790260    -1.77010572     5.13804490
PRIMCOORD
6 1
Ti      1.25841227     2.65525964     1.28451117     0.00060781    -0.00060781     0.00000000
Ti      1.53941642    -0.88520064     3.85353341    -0.00060781     0.00060781     0.00000000
O       0.41954444     0.88503648     0.83694547    -0.00033527    -0.00042398    -2.15457162
O       2.37828411     0.88502239     4.30109917     0.00033527     0.00042398     2.15457162
O      -0.41950914    -0.88501419     3.40596776    -0.00042398    -0.00033527    -2.15457162
O       3.21733762     2.65507302     1.73207688     0.00042398     0.00033527     2.15457162
