# total energy = -19918.81506807 eV

CRYSTAL
PRIMVEC
        5.91976717     0.00000000     0.00000000
        0.00002234     3.78025330     0.00000000
        0.00000000     0.00000000     9.04113608
PRIMCOORD
24 1
Ti      2.14564394     2.24017459     3.35419702    -0.93066590     3.32490788    -4.88584498
Ti      3.77414518     1.54007866     5.68693916     0.93066590    -3.32490788     4.88584498
Ti      5.10542568     1.54007994     1.16633495    -0.92493671    -3.32483126     4.88972966
Ti      0.81436349     2.24017347     7.87480128     0.92493671     3.32483126    -4.88972966
Ti      2.14563297     0.35004799     1.16637122    -0.93066590     3.32490788     4.88584498
Ti      3.77415615     3.43020537     7.87476506     0.93066590    -3.32490788    -4.88584498
Ti      0.81435247     0.35004662     5.68690290     0.92493671     3.32483126     4.88972966
Ti      5.10543665     3.43020673     3.35423324    -0.92493671    -3.32483126    -4.88972966
O       1.87365144     1.33109141     4.61362256     3.25006638    -3.45587452     5.19280987
O       4.04613773     2.44916180     4.42751362    -3.25006638     3.45587452    -5.19280987
O       1.08628228     1.33110668     0.09308357    -3.24858491    -3.45667773     5.19252062
O       4.83350694     2.44914658     8.94805232     3.24858491     3.45667773    -5.19252062
O       4.04612675     0.55903509     0.09305423    -3.25006638     3.45587452     5.19280987
O       1.87366242     3.22121811     8.94808166     3.25006638    -3.45587452    -5.19280987
O       4.83349591     0.55901988     4.61365185     3.24858491     3.45667773     5.19252062
O       1.08629316     3.22123338     4.42748428    -3.24858491    -3.45667773    -5.19252062
O       0.21509234     2.29936435     2.44223641     3.72993108    -0.74284674     2.65224919
O       5.70469683     1.48088885     6.59889972    -3.72993108     0.74284674    -2.65224919
O       3.17498274     1.48085371     2.07836039     3.73416954     0.74317225    -2.65220985
O       2.74480638     2.29939955     6.96277560    -3.73416954    -0.74317225     2.65220985
O       0.21508132     0.40923765     2.07833153     3.72993108    -0.74284674    -2.65224919
O       5.70470780     3.37101555     6.96280445    -3.72993108     0.74284674     2.65224919
O       2.74479541     0.40927285     6.59892853    -3.73416954    -0.74317225    -2.65220985
O       3.17499371     3.37098036     2.44220756     3.73416954     0.74317225     2.65220985
