# total energy = -19517.01246348 eV

CRYSTAL
PRIMVEC
        5.93400000     0.00000000     0.00000000
        0.00000000     9.29699974     0.00000000
        0.00000000     0.00000000     4.64899994
PRIMCOORD
23 1
Ti      4.49321000     7.04828600     2.28338602     0.33945979     0.92066096    -0.10354428
Ti      4.39994601     2.27421998     2.31551502     1.03417212     0.17022586     0.08604457
Ti      1.39929398     7.06586098     2.17284799    -0.65487899     0.01661345    -0.72709127
Ti      1.46071903     2.27213799     2.39785902    -1.18917936     0.69866103    -0.53515604
Ti      2.99002800     4.58521101     0.19642102     0.75387447    -0.75865492    -0.47309601
Ti      2.93662502     9.22542402     4.61567998     0.60350961     0.08379023    -0.00291743
Ti      0.04257802     4.66670801     0.04138499    -0.53474749    -1.45036754    -0.31811474
Ti      0.01536498     0.04627401     4.60087498    -0.61750516     0.06047751    -0.05592023
O       4.56081298     5.59836198     1.04199499    -1.03975785    -0.64793392    -1.31265587
O       4.39347703     0.96240498     0.79076999    -0.04748238    -0.03009889     0.72297597
O       1.52330498     5.47655903     0.98506700     0.20414515     1.02127726    -0.36070225
O       1.48708899     0.86475199     0.89840200     0.47395708    -0.21018313    -0.20592616
O       4.52541102     8.31130297     3.74081801    -1.25347805     0.42528427     0.03589981
O       4.49745998     3.71730598     3.86050801    -0.26734161     0.62133482    -1.10642632
O       1.45371902     8.28336802     3.46590900     0.74740942     2.26901095     3.33054322
O       1.49592699     3.57184198     3.91215899     0.24924592     1.73314992    -0.96045548
O       2.84535602     1.47364101     3.30762298     1.86098393    -0.88121123    -0.49442024
O       5.92776402     6.25529399     3.09678802     0.49464906    -2.37795198     1.79846110
O       5.91864598     1.38726499     3.22450601    -0.20780281     0.26668212    -0.71404703
O       2.96181200     7.86168398     1.41726299     0.33525758     0.22746584    -1.07935645
O       3.03968202     3.25017502     1.35243502    -0.33580651    -1.01699355     1.80198969
O       5.87862298     8.06577701     1.36256501     0.11800134    -1.07853138    -0.01354149
O       0.10919800     3.24314501     1.39534399    -1.06668579    -0.06270743     0.68745693
