# total energy = -19516.71772773 eV

CRYSTAL
PRIMVEC
        5.17600016     0.00000000     0.00000000
        0.00000000     5.50899976     0.00000000
        0.00000000     0.00000000     9.26300011
PRIMCOORD
23 1
Ti      1.89363100     3.18245298     3.35498699    -0.92056789     0.05781153     2.96985408
Ti      3.30068399     2.18591099     5.91108102     1.36478783     0.97131377    -2.98407640
Ti      4.48913502     2.02370298     1.40217800     1.03899731    -0.60276553     0.08407819
Ti      0.86937001     3.42511197     7.83228702    -2.45793465     0.39173419    -0.09073864
Ti      2.05120601     0.27063702     1.33902599    -0.86742162     0.95083210    -0.92403836
Ti      3.20478802     5.21702600     7.98178398     0.76500580    -0.49928605    -1.27301510
Ti      0.73405097     0.51820698     5.95303202    -0.66721283     0.38163721    -3.45285013
Ti      4.42979700     4.90477200     3.31983200     1.85593376    -0.42365574     3.76854495
O       1.69254200     2.00939302     4.84134000    -0.30737010    -1.13376898    -0.43814031
O       3.57178901     3.57262701     4.40920899    -0.30878292    -0.45689754     0.25056052
O       4.86148699     3.06302599     0.05474698     0.26994511     0.73424254    -1.93909638
O       3.45858101     0.78055502     0.17953698     1.14003733     0.28565224    -0.42768003
O       1.78842199     4.63363698     9.02848399    -0.47906175    -0.20276730     1.39631857
O       4.24934502     0.70717401     4.83264101    -0.11625273     0.60164248     0.08107103
O       0.93755900     4.62935302     4.36702002     0.30417781     0.41868168     0.59492367
O       0.15631399     3.29950699     2.43725198     1.03423074     0.59281485     0.90232385
O       5.07454302     2.05365600     6.93939100    -0.78040440     0.14728313    -0.83986016
O       2.89910301     1.88055698     2.19076900    -2.58865730     0.55118944     1.27345784
O       2.38281800     3.63051800     6.82137702     1.28316607     0.42148341     0.63049258
O       0.37410699     0.61185098     2.21189698     0.00935239     0.35314655    -1.49272469
O       4.99023503     4.94068499     7.16003098    -0.30199469    -1.56102452     1.03810694
O       2.30706999     1.03305602     7.03032398    -0.00179026    -0.95386600     0.79795939
O       2.80561401     4.57114300     2.31477698     0.73181722    -1.02543345     0.07452859
