# total energy = -19907.13978388 eV

CRYSTAL
PRIMVEC
        6.62056027     0.00000000     0.00000000
        2.39294670     6.62750709     0.00000000
        0.00000000     0.00000000    12.04070501
PRIMCOORD
24 1
Ti      3.81769277     3.92745446     4.46701570    -0.27748513    -1.99246736     0.55837285
Ti      5.19581445     2.70005245     7.57368944     0.27748513     1.99246736    -0.55837285
Ti      6.68469534     2.70005471     1.55328880     0.03185392    -0.90711484     0.00227491
Ti      2.32881191     3.92745240    10.48741648    -0.03185392     0.90711484    -0.00227491
Ti      2.62121958     0.61370109     1.55333707    -0.27748513    -1.99246736    -0.55837285
Ti      6.39228765     6.01380596    10.48736821     0.27748513     1.99246736     0.55837285
Ti      1.13233859     0.61369865     7.57364117    -0.03185392     0.90711484     0.00227491
Ti      7.88116865     6.01380846     4.46706397     0.03185392    -0.90711484    -0.00227491
O       2.93804640     2.33365784     6.14427961     1.81306420     2.04355083    -0.71725294
O       6.07546082     4.29384908     5.89642554    -1.81306420    -2.04355083     0.71725294
O       2.05747663     2.33368457     0.12396584    -0.45242331    -0.42784047     1.35419051
O       6.95603066     4.29382240    11.91673897     0.45242331     0.42784047    -1.35419051
O       4.87898761     0.98009557     0.12392677    -1.81306420    -2.04355083    -0.71725294
O       4.13451961     5.64741134    11.91677805     1.81306420     2.04355083     0.71725294
O       5.75955744     0.98006883     6.14431868     0.45242331     0.42784047     1.35419051
O       3.25394971     5.64743810     5.89638647    -0.45242331    -0.42784047    -1.35419051
O       1.69606605     4.03122540     3.25249482     0.58534219     2.34074476     2.28575167
O       7.31744116     2.59628151     8.78821033    -0.58534219    -2.34074476    -2.28575167
O       4.48823223     2.59621978     2.76789603     0.60068294     1.98694592     1.35466359
O       4.52527498     4.03128714     9.27280892    -0.60068294    -1.98694592    -1.35466359
O       0.49959285     0.71747190     2.76785755     0.58534219     2.34074476    -2.28575167
O       8.51391437     5.91003502     9.27284739    -0.58534219    -2.34074476     2.28575167
O       3.32880178     0.71753363     8.78824867    -0.60068294    -1.98694592     1.35466359
O       5.68470544     5.90997328     3.25245641     0.60068294     1.98694592    -1.35466359
