# total energy = -19515.33412348 eV

CRYSTAL
PRIMVEC
        5.17600016     0.00000000     0.00000000
        0.00000000     5.50899976     0.00000000
        0.00000000     0.00000000     9.26300011
PRIMCOORD
23 1
Ti      1.87730302     3.17360599     3.26445699     0.02786254     0.31438304     3.11909356
Ti      3.30303200     2.20587600     5.90747298     0.85136508     0.43818582    -2.75427086
Ti      4.50509702     2.23486798     1.39871400    -0.56141678    -0.66125558    -3.65545133
Ti      0.69642298     3.41884302     7.96559502     1.01166339    -1.24752466     1.33187975
Ti      1.85618297     0.59153502     1.36115703    -0.03356731    -0.11861686    -3.25697056
Ti      3.37975101     5.10637398     7.91983802    -0.22052771    -0.01031476     3.93706077
Ti      0.79221502     0.60132401     5.82472300    -1.27715560     0.01922954    -2.45444284
Ti      4.43891001     4.84165798     3.46187799    -0.00476066     1.87951670     2.58338114
O       1.53818698     1.89455700     4.75381302     0.98357819     0.24573739    -0.67970428
O       3.36032200     3.48376302     4.42329997     0.68909884     1.00710662     0.56699813
O       0.85358598     2.13277699     0.18306702    -0.27903936     0.53637500    -0.22665465
O       3.44109202     0.85516298     0.13140000     0.70856004     0.25945192    -0.48411422
O       1.84332598     4.75321902     8.87433402    -1.83705209    -0.75561639     1.55691950
O       4.30491598     0.86323801     4.79745798    -0.18202080    -1.53988516    -1.35013331
O       0.87181798     4.65842099     4.53022601    -0.21698910     0.21964197    -0.19259935
O       0.03328001     3.23729898     2.72107800     0.64112229     1.18664477    -0.32165258
O       4.98755898     2.24390802     6.63175100     0.68012749     0.10448864     1.66684834
O       2.84070402     1.88101901     2.29806000    -0.99933623     0.93532962     0.21681221
O       2.28621199     3.04817299     7.15538301     1.14900895     1.23650593     0.13326753
O       5.16988800     0.74000300     2.02304801     1.63207699    -3.64457274     1.86033884
O       5.09217002     4.88236097     7.04916602    -0.46934297    -0.05875616     0.97137136
O       2.72120500     0.58898402     6.69245801    -2.74251011     0.03670020    -1.69900231
O       2.57549901     4.81868100     2.52545001     0.44925519    -0.38275513    -0.86897457
