# total energy = -4989.81397542 eV

CRYSTAL
PRIMVEC
        3.01977232     0.00000000     0.00000000
        0.70576016     4.67859846     0.00000000
       -0.00000443    -0.00006142     4.74496925
PRIMCOORD
6 1
Ti      1.86276375     2.33926843     2.37248457     0.00000000     0.00000000     0.00000000
Ti      0.00000000     0.00000000     0.00000000     0.00000000     0.00000000     0.00000000
O       1.64742742     0.91177790     0.92472459    -0.48116722     0.07330244     0.02400306
O       2.07810008     3.76675896     3.82024450     0.48116722    -0.07330244    -0.02400306
O       0.21533440     1.42746564     3.29721017     0.48114331    -0.07303813     0.02363050
O       0.49042089     3.25107132     1.44775892    -0.48114331     0.07303813    -0.02363050
