# total energy = -19074.90981732 eV

CRYSTAL
PRIMVEC
        5.17600016     0.00000000     0.00000000
        0.00000000     5.50899976     0.00000000
        0.00000000     0.00000000     9.26300011
PRIMCOORD
22 1
Ti      1.90610900     3.38978098     3.31680601     0.73007890     1.14056698    -0.86068199
Ti      3.48191899     2.26477602     5.95022802    -0.48278882    -0.25614008     0.20570838
Ti      4.50941902     2.28051100     1.33557199    -0.76782759    -0.28726869    -1.91344216
Ti      0.71409898     3.17093602     8.06550797    -0.06830267     1.20434502     0.22459957
Ti      1.89104602     0.54664502     1.25439700     0.17921110     0.09029795    -1.44144041
Ti      3.16369799     5.04321398     7.98927099     0.40459769     0.00120251     1.08517871
Ti      0.58893898     0.12798998     6.00441503     0.55655688     2.15076922    -0.97631662
Ti      4.50156799     4.92908002     3.43130102    -0.81200687     1.07536430     0.68091527
O       3.41428400     3.40084698     4.43150100     0.98405822    -0.47961839     1.08455856
O       0.84151899     2.00061698     0.18802102     0.55792445    -1.07865994    -0.27469933
O       4.21157102     3.60976801     8.90975598     0.78028356    -0.02861150     0.30963447
O       3.40430203     0.80939798     0.17467501     1.19144065     0.39720910    -0.74440020
O       1.67829300     4.70592301     9.03146098    -1.76519564    -0.11482911     0.90630932
O       4.17501101     0.63850199     4.91804202     0.05390551    -0.38495445    -0.04566975
O       1.12471698     4.90883899     4.28058098    -0.76938465    -0.68245511     1.85710259
O       0.19914998     3.53171299     2.42489802    -0.39990028    -0.36663842    -0.20952750
O       0.08376802     2.23781301     6.48503000    -0.31964043    -0.74200548     0.29897879
O       2.73798600     2.20476700     2.02365302    -0.52893448    -0.21008106     1.07709516
O       2.42381897     3.50143801     7.06368802    -0.38990717    -0.21970547    -1.25775688
O       0.14786900     0.82151498     2.26461801    -0.15646788    -0.46038447     0.16999395
O       2.22710702     0.86540399     6.82466702     0.52023772    -0.65370014    -0.69231349
O       2.77411003     4.82205001     2.34738699     0.50206207    -0.09470225     0.51617306
