# total energy = -4986.53877301 eV

CRYSTAL
PRIMVEC
        3.28500396     0.00000000     0.00000000
        1.51015375     4.92058578     0.00000000
       -0.00001006    -0.00006746     5.20732759
PRIMCOORD
6 1
Ti      2.39757389     2.46025921     2.60366380     0.00000000     0.00000000     0.00000000
Ti      0.00000000     0.00000000     0.00000000     0.00000000     0.00000000     0.00000000
O       1.93680676     0.95893665     1.01483143     0.72999174    -0.21052072    -0.58237874
O       2.85834109     3.96158176     4.19249610    -0.72999174     0.21052072     0.58237874
O       0.46076301     1.50129525     3.61849638    -0.73007298     0.21083337    -0.58193651
O       1.04938089     3.41922292     1.58883121     0.73007298    -0.21083337     0.58193651
