# total energy = -19518.56530370 eV

CRYSTAL
PRIMVEC
        7.60600008     0.00000000     0.00000000
        0.00000000     7.60600008     0.00000000
       -1.89786986    -1.89786986     4.85670466
PRIMCOORD
23 1
Ti      3.79922500     6.70128098     1.25129200    -0.13335237     0.03589698     0.03935049
Ti      3.74040202     2.93451402     1.16420598     0.71686059    -0.16166486     1.55201820
Ti     -0.06188400     6.56977800     1.19753097     0.51582725    -0.29364349    -0.23146905
Ti      0.02382398     2.78801903     1.18251202    -1.07476034     0.07403520    -0.24710702
Ti      5.69522120     2.81433422     3.56010980    -1.46837427    -0.16303988     1.21036963
Ti      5.73215820    -1.03942477     3.65748180    -0.69779663     0.42662871     0.38320224
Ti      1.93288521     2.90731823     3.64474080     1.50411905     0.30279687     0.57719719
Ti      1.83987823    -0.92832078     3.65083179     0.85875983    -0.24889445    -0.40457712
O       4.12770500     4.75079798     0.75333800    -1.40028424     0.35335687     0.55185742
O       3.81306700     1.03628500     0.81640699    -0.39990542    -0.48827684     0.10764776
O      -0.19223999     4.75813497     0.76576002     0.85598124     0.36365028     0.25967123
O       0.15122902     0.86202799     0.83785401    -0.29497969     0.41590386    -0.81481529
O       5.76949324     4.70169224     3.93413382     0.15060628    -0.02501376     0.44710961
O       5.52909225     0.92413822     4.22418984     0.75571332    -0.37882905    -2.72129645
O       1.87921621     4.80064521     4.11810282    -0.49743280    -0.51912855    -0.25825121
O       2.04134220     0.95776420     4.07739083    -1.15556809     0.31318953    -0.51235703
O       3.79430423     2.92083124     3.33766184    -0.10474087    -0.11710634    -1.93802963
O       3.78831521    -1.04197075     3.19487780     0.14148503     0.05034222     0.11624245
O      -0.02048477    -1.09264079     3.21555381     0.21667517     0.70024458     0.03175159
O       5.71611598     6.79636598     1.60597802    -0.36287844     0.04720316     0.58137549
O       5.80615099     2.80683498     1.67810800    -0.58806833    -0.37346779     0.45074181
O       1.87066100     6.64663898     1.59951201     0.63913843    -0.30478331     0.47676755
O       1.77564400     3.03296099     1.64882302     1.82297530    -0.00939996     0.34260065
