# total energy = -19915.59587406 eV

CRYSTAL
PRIMVEC
        7.49966560     0.00000000     0.00000000
        0.00002456     3.42081938     0.00000000
        0.00000000     0.00000000    11.41390488
PRIMCOORD
24 1
Ti      2.71828250     2.02717441     4.23447730    -0.31807643     0.23383086     1.58541633
Ti      4.78140733     1.39364503     7.17942774     0.31807643    -0.23383086    -1.58541633
Ti      6.46798694     1.39364619     1.47242957    -0.31787152    -0.23418542    -1.58394515
Ti      1.03170289     2.02717336     9.94147558     0.31787152     0.23418542     1.58394515
Ti      2.71827038     0.31676478     1.47247535    -0.31807643     0.23383086    -1.58541633
Ti      4.78141945     3.10405472     9.94142980     0.31807643    -0.23383086     1.58541633
Ti      1.03169078     0.31676350     7.17938195     0.31787152     0.23418542    -1.58394515
Ti      6.46799905     3.10405599     4.23452309    -0.31787152    -0.23418542     1.58394515
O       2.37370007     1.20452865     5.82442833     3.95912007    -0.08978681     0.11642911
O       5.12598976     2.21629074     5.58947671    -3.95912007     0.08978681    -0.11642911
O       1.37619369     1.20454245     0.11751254    -3.96037734    -0.09053346     0.11747066
O       6.12349619     2.21627699    11.29639217     3.96037734     0.09053346    -0.11747066
O       5.12597769     0.50588105     0.11747551    -3.95912007     0.08978681     0.11642911
O       2.37371213     2.91493839    11.29642920     3.95912007    -0.08978681    -0.11642911
O       6.12348413     0.50586725     5.82446536     3.96037734     0.09053346     0.11747066
O       1.37620565     2.91495219     5.58943968    -3.96037734    -0.09053346    -0.11747066
O       0.27249502     2.08073625     3.08318049    -0.35428118    -0.03021099     0.40877496
O       7.22719481     1.34008313     8.33072456     0.35428118     0.03021099    -0.40877496
O       4.02233736     1.34005126     2.62380832    -0.35735776     0.03075529    -0.40942982
O       3.47735247     2.08076818     8.79009656     0.35735776    -0.03075529     0.40942982
O       0.27248296     0.37032656     2.62377190    -0.35428118    -0.03021099    -0.40877496
O       7.22720687     3.05049288     8.79013298     0.35428118     0.03021099     0.40877496
O       3.47734041     0.37035843     8.33076092     0.35735776    -0.03075529    -0.40942982
O       4.02234942     3.05046101     3.08314406    -0.35735776     0.03075529     0.40942982
