# total energy = -4987.16825600 eV

CRYSTAL
PRIMVEC
        2.86594097     0.00000000     0.00000000
        0.00000000     4.06283346     0.00000000
        0.00000000    -0.00005557     4.28738496
PRIMCOORD
6 1
Ti      1.43297048     2.03138880     2.14369248     0.00000000     0.00000000     0.00000000
Ti      0.00000000     0.00000000     0.00000000     0.00000000     0.00000000     0.00000000
O       1.43297048     0.79177551     0.83554817     0.00000000     0.52871876     0.39169383
O       1.43297048     3.27100203     3.45183674     0.00000000    -0.52871876    -0.39169383
O       0.00000000     1.23959077     2.97924152     0.00000000    -0.52812433     0.39088033
O       0.00000000     2.82318682     1.30814339     0.00000000     0.52812433    -0.39088033
