# total energy = -19517.05833468 eV

CRYSTAL
PRIMVEC
        5.93400000     0.00000000     0.00000000
        0.00000000     9.29699974     0.00000000
        0.00000000     0.00000000     4.64899994
PRIMCOORD
23 1
Ti      4.53615099     6.86439500     2.26694300     0.04411989     0.84919944     0.46708220
Ti      4.44949203     2.28817100     2.35773998    -0.12641322    -0.20860319     0.74907216
Ti      1.48658198     7.08785602     2.34511598     0.84567522    -0.19001642    -0.33848020
Ti      1.39249998     2.43085100     2.30122501     0.34079265    -0.91609237     0.31434936
Ti      2.94915202     4.58894600     0.10362402     0.04508534     0.14490306    -0.12461396
Ti      3.00397298     0.01049200     4.55561498     0.11238605    -0.48896641    -0.04306857
Ti      0.01984198     4.66064798     0.01539498    -0.09848563     0.02410102    -0.45972396
Ti      0.02638599     9.27953002     0.13278301     0.02923937     0.71292089    -0.98697385
O       4.39660600     5.68549900     0.78011099    -0.23643565    -0.85303501    -0.33265614
O       4.39868699     0.93145102     0.81126100     0.36674075    -0.38855811     0.47702415
O       1.51339899     5.59043898     0.99531197     0.48581809    -0.69181495    -0.92984366
O       1.48162502     0.97486298     1.01066902    -0.40376876    -1.00549917    -1.00799957
O       4.45214400     8.27241199     3.51556202    -0.71590980     1.00454529     2.00127082
O       4.53157102     3.75987098     3.65371401    -0.93711860     0.62485903     0.26914138
O       1.45946900     8.41282600     3.71883498     0.15781900    -0.06937250     0.33671797
O       1.40953298     3.59772002     3.89085998     0.26816564     1.14380375    -1.05909204
O       2.86756400     1.60795598     3.29046700     0.51386421    -1.12612278    -0.25014735
O       0.08028899     6.00248501     3.23241499    -0.04780094     0.13440575    -0.13975956
O       5.83152398     1.24445698     3.22360101     0.33505960     1.44616816    -0.63471767
O       2.99404599     7.84422298     1.31074601    -0.38155776    -0.18309989     0.76738947
O       3.01819901     3.29982799     1.26386202    -0.39436263    -1.40433681     1.99059354
O       0.05841000     7.71744799     1.46363199    -0.62189506     2.06302206    -1.91870033
O       5.81330600     3.30131699     1.38152601     0.41898276    -0.62241108     0.85313605
