# total energy = -19961.83697212 eV

CRYSTAL
PRIMVEC
        5.09811622     0.00000000     0.00000000
        0.00002794     5.42593735     0.00000000
        0.00000000     0.00000000     9.12450702
PRIMCOORD
24 1
Ti      1.84783848     3.21540545     3.38512709    -0.00619945     0.12909565    -0.12377758
Ti      3.25030568     2.21053195     5.73938019     0.00619945    -0.12909565     0.12377758
Ti      4.39680734     2.21053381     1.17709009    -0.00476734    -0.12894421     0.12377398
Ti      0.70133682     3.21540380     7.94741730     0.00476734     0.12894421    -0.12377398
Ti      1.84782462     0.50243688     1.17712668    -0.00619945     0.12909565     0.12377758
Ti      3.25031954     4.92350067     7.94738070     0.00619945    -0.12909565    -0.12377758
Ti      0.70132295     0.50243486     5.73934360     0.00476734     0.12894421     0.12377398
Ti      4.39682121     4.92350269     3.38516368    -0.00476734    -0.12894421    -0.12377398
O       1.61359581     1.91056483     4.65616619    -0.25252382    -0.23336961    -0.02363102
O       3.48454835     3.51537262     4.46834109     0.25252382     0.23336961     0.02363102
O       0.93551178     1.91058668     0.09394192     0.25267037    -0.23352285    -0.02350143
O       4.16263243     3.51535077     9.03056510    -0.25267037     0.23352285     0.02350143
O       3.48453448     0.80240390     0.09391231     0.25252382     0.23336961    -0.02363102
O       1.61360968     4.62353350     9.03059471    -0.25252382    -0.23336961     0.02363102
O       4.16261856     0.80238204     4.65619579    -0.25267037     0.23352285    -0.02350143
O       0.93552555     4.62355541     4.46831149     0.25267037    -0.23352285     0.02350143
O       0.18524333     3.30036269     2.46475704    -0.09520490     0.06057264    -0.05829104
O       4.91290083     2.12557471     6.65975024     0.09520490    -0.06057264     0.05829104
O       2.73430552     2.12552414     2.09752561    -0.09537922    -0.06070428     0.05838335
O       2.36383863     3.30041326     7.02698152     0.09537922     0.06070428    -0.05838335
O       0.18522946     0.58739396     2.09749647    -0.09520490     0.06057264     0.05829104
O       4.91291470     4.83854344     7.02701065     0.09520490    -0.06057264    -0.05829104
O       2.36382477     0.58744453     6.65977933     0.09537922     0.06070428     0.05838335
O       2.73431939     4.83849287     2.46472790    -0.09537922    -0.06070428    -0.05838335
