# total energy = -19076.80286285 eV

CRYSTAL
PRIMVEC
        5.17575250     0.00001323     0.00000000
        0.00001429     5.50856584     0.00000000
        0.00000000     0.00000000     9.26345890
PRIMCOORD
22 1
Ti      1.88658595     3.28495839     3.41394814     0.41322734     0.88462925    -0.67081546
Ti      3.30957951     2.25173513     5.84364727     0.39424025     0.13561391     0.56558968
Ti      4.47535573     2.24677280     1.18814114     0.36869093     0.16510448    -0.24630020
Ti      0.72106493     3.25656270     8.07866266     0.31229968    -0.18341691     0.10476195
Ti      1.87296756     0.51434499     1.19273640    -0.14336297     0.27705215     0.04596389
Ti      3.28673775     4.99669012     8.08124961    -0.48079133    -0.09533474     0.21498081
Ti      0.70981882     0.51984672     5.82846244    -0.06547368     0.30323859    -0.09339947
Ti      4.45807956     4.99119689     3.42742817    -0.05730683    -0.17658163     0.11167771
O       3.52456579     3.55453685     4.54222784    -0.46171862    -0.44921637     0.12276071
O       0.94702716     1.93578600     0.10042142    -0.07733136    -0.27489217     0.32123503
O       4.21988005     3.58190369     9.15718796    -0.26349395     0.36723260    -0.29444156
O       3.54196138     0.81060490     0.08878155     0.16711071    -0.00210213    -0.11568169
O       1.63615302     4.69177123     9.16244946    -0.14558491    -0.06608792    -0.14749267
O       4.22989977     0.81842972     4.73201491     0.15732869    -0.01175483     0.01011601
O       0.95388945     4.69057446     4.54493329     0.05270044    -0.13846733     0.28552934
O       0.18663514     3.34697776     2.50728508    -0.18493746    -0.14554969     0.06992580
O       5.00038377     2.14641613     6.75512383     0.61494460    -0.38883193    -0.05623879
O       2.76788759     2.15594923     2.14238216    -0.17646670    -0.23372596     0.28259314
O       2.39915772     3.35244968     7.12567194    -0.12644896     0.12162557    -0.22281085
O       0.18791559     0.59401965     2.13464045     0.02363256    -0.14359848     0.15767116
O       2.39334628     0.60255671     6.74673284    -0.17314484     0.23049228    -0.45201527
O       2.77442754     4.90696279     2.50628762    -0.14811385    -0.17542875     0.00639074
