# total energy = -4990.11419739 eV

CRYSTAL
PRIMVEC
        3.05581705     0.00000000     0.00000000
        0.00000000     4.78800719     0.00000000
        0.00000000    -0.00006214     4.78800719
PRIMCOORD
6 1
Ti      1.52790847     2.39397247     2.39400354     0.00000000     0.00000000     0.00000000
Ti      0.00000000     0.00000000     0.00000000     0.00000000     0.00000000     0.00000000
O       1.52790847     0.93309996     0.93311207     0.00000000    -0.29259036    -0.29259036
O       1.52790847     3.85484499     3.85489502     0.00000000     0.29259036     0.29259036
O       0.00000000     1.46084733     3.32711658    -0.00000000     0.29311487    -0.29311487
O       0.00000000     3.32709762     1.46089050    -0.00000000    -0.29311487     0.29311487
