# total energy = -19518.91547940 eV

CRYSTAL
PRIMVEC
        7.60600008     0.00000000     0.00000000
        0.00000000     7.60600008     0.00000000
       -1.89786986    -1.89786986     4.85670466
PRIMCOORD
23 1
Ti      3.75247600     6.67476999     1.20946397     0.62612324    -0.91935895    -0.83370545
Ti      3.75946098     2.70059799     1.28202598     0.56998550     1.41251292    -0.07468569
Ti     -0.06353302     6.60846303     1.15619900    -0.12643687     0.02301910    -0.24939556
Ti      0.04441702     2.80922898     1.23448501    -0.42915893     0.10278991    -0.27655182
Ti      5.66529724     2.85864921     3.63583184     0.05305833     0.97388205     0.18771503
Ti      5.66677422    -0.80188880     3.59109382     0.80085959    -1.05963222     0.62590419
Ti      1.97885023     2.82389121     3.75530683     0.26987620     0.32063340    -0.16244801
Ti      1.89593323    -0.92826977     3.52941980    -0.68906207    -0.31515283     0.66015695
O       3.64284698     4.68913899     0.78551801     0.21082668     1.23449996     0.47367785
O       3.92418899     0.90188203     0.81650801    -0.33197274     0.09062088    -0.64958354
O       0.10812499     4.75802998     0.77676701    -0.06378035     0.06401484     0.55946891
O      -0.08349703     0.95981699     0.69661401    -0.08309808    -0.23872650     0.77556996
O       5.72565922     4.74208820     4.02898582     0.21330214     0.14694169     0.01353069
O       5.90803825     0.98812321     4.17262882     0.06478051     0.11464990    -1.89115763
O       2.03939022     4.74260420     3.91205580    -0.87709900     0.74221965     0.85451288
O       1.79703921     0.96702824     4.13048281    -0.10227184    -1.41122480    -0.52300706
O       3.85929524     2.91288623     3.45388779    -0.61784480    -1.02907182    -1.49361377
O       3.77818322    -0.69779080     3.15613584    -0.03787956    -0.26503250     0.26294425
O      -0.04969477    -0.99197080     3.18617580     0.80968748     0.27462452    -0.07747328
O       5.65894901     6.64257501     1.63161603     0.34431943    -0.33102760    -0.49815862
O       5.71238200     2.91881503     1.58824302     1.01796825    -0.28833339     1.08689236
O       1.89987402     6.64358701     1.59035200    -0.50942160     0.39704044     0.19783669
O       1.93491000     2.68984702     1.62704298    -1.11276203    -0.03988760     1.03157094
