# total energy = -19960.24238023 eV

CRYSTAL
PRIMVEC
        7.60600008     0.00000000     0.00000000
        0.00000000     7.60600008     0.00000000
       -1.89786986    -1.89786986     4.85670466
PRIMCOORD
24 1
Ti      3.85177399     6.61431398     1.17599002    -0.83444773    -0.08690460     0.11308359
Ti      3.72606000     2.84043001     1.28678000    -0.08813951    -0.27862284    -0.79093642
Ti      0.11330299     6.78456999     1.13362700     0.05216179    -0.43619784     1.33270482
Ti     -0.03062502     2.92166401     1.18489099    -0.03337910     0.60544411     1.48653347
Ti      5.63650322     3.00028721     3.66832882     1.65131167    -2.06265388    -0.44044196
Ti      5.70207124    -0.94688479     3.52855380     1.83863640     1.08790203     1.46175368
Ti      1.90531221     2.75606921     3.68676584    -2.33980682    -1.55247817    -0.89879398
Ti      1.91141622    -1.10492575     3.65426980    -1.42573868     1.70631376    -0.46993227
O       3.81458400     4.64656800     0.75923298     0.20934187     1.92236724     0.23633898
O       3.80502102     1.06250902     0.78825502     0.35919533    -3.99422258     0.31750513
O      -0.02364703     4.91453199     0.95423300    -0.63295544    -0.97354729    -1.51737540
O       0.11270999     1.08474499     0.79594402    -0.74655325    -2.15159531    -0.73129014
O       5.98426724     4.77538520     3.97030980    -0.93121277     1.59590772     0.82667759
O       5.74085925     1.05816622     4.17984981    -0.72298008    -0.27060202    -1.77326017
O       1.61914924     4.67003723     4.05995280     0.97357146     0.53010125     1.31297288
O       1.85359122     0.82943322     4.01805979     0.50649851     1.12887154    -0.17306487
O       3.70079824     2.88008020     3.31591381     1.03245025     0.40144474    -0.17824796
O       3.81500522     6.37059023     3.12378083     0.22698298     0.43745151     0.30680497
O      -0.05167479     2.81801020     3.18472083     0.30250814    -0.12831455     0.44245359
O       0.03591224    -0.92533077     3.19820982    -0.73078595     0.41187931     0.15289508
O       5.77858901     6.72395300     1.65967200    -1.65698327     0.33056171    -1.28022036
O       5.61921299     2.92127898     1.72280602     0.15051989    -0.10307171    -0.09196942
O       1.82692799     6.39673598     1.68642201     2.61098785     1.06630424    -0.54013472
O       1.87350998     2.73539600     1.57327402     0.22881644     0.81366189     0.89594365
