# total energy = -19950.43712671 eV

CRYSTAL
PRIMVEC
        5.60723713     0.00000000     0.00000000
        1.46902467     5.78416411     0.00000000
        0.00000000     0.00000000    10.11628501
PRIMCOORD
24 1
Ti      2.90289649     3.42769046     3.75306978     0.45699164    -2.04586894     0.93894537
Ti      4.17336548     2.35647402     6.36321580    -0.45699164     2.04586894    -0.93894537
Ti      5.43436247     2.35647602     1.30503262    -1.06272346    -0.52405067     0.29655783
Ti      1.64189953     3.42768869     8.81125307     1.06272346     0.52405067    -0.29655783
Ti      2.16838428     0.53560845     1.30507318     0.45699164    -2.04586894    -0.93894537
Ti      4.90787772     5.24855626     8.81121251    -0.45699164     2.04586894     0.93894537
Ti      0.90738720     0.53560623     6.36317524     1.06272346     0.52405067     0.29655783
Ti      6.16887479     5.24855842     3.75311034    -1.06272346    -0.52405067    -0.29655783
O       2.29199452     2.03670264     5.16226304     1.32200363     1.67760867    -0.68815036
O       4.78426739     3.74746186     4.95402253    -1.32200363    -1.67760867     0.68815036
O       1.54619992     2.03672598     0.10415285    -0.31889687    -0.18147213     0.82690899
O       5.53006212     3.74743861    10.01213244     0.31889687     0.18147213    -0.82690899
O       4.04975515     0.85537968     0.10412003    -1.32200363    -1.67760867    -0.68815036
O       3.02650682     4.92878481    10.01216526     1.32200363     1.67760867     0.68815036
O       4.79554987     0.85535638     5.16229587     0.31889687     0.18147213     0.82690899
O       2.28071205     4.92880817     4.95398971    -0.31889687    -0.18147213    -0.82690899
O       1.09726797     3.51825663     2.73266112     0.26616764     1.06300474     1.03606008
O       5.97899394     2.26590787     7.38362446    -0.26616764    -1.06300474    -1.03606008
O       3.58282057     2.26585393     2.32551387     0.94159155     0.93884664     0.16050555
O       3.49344140     3.51831062     7.79077154    -0.94159155    -0.93884664    -0.16050555
O       0.36275574     0.62617445     2.32548156     0.26616764     1.06300474    -1.03606008
O       6.71350624     5.15799010     7.79080385    -0.26616764    -1.06300474     1.03606008
O       2.75892916     0.62622838     7.38365671    -0.94159155    -0.93884664     0.16050555
O       4.31733281     5.15793611     2.73262881     0.94159155     0.93884664    -0.16050555
