# total energy = -19074.67589931 eV

CRYSTAL
PRIMVEC
        7.60600008     0.00000000     0.00000000
        0.00000000     7.60600008     0.00000000
       -1.89786986    -1.89786986     4.85670466
PRIMCOORD
22 1
Ti      3.87812802     6.63371902     1.05939402    -0.96058455    -0.14413610     2.21302773
Ti      3.79076298     2.82405600     1.26786900    -0.26478721     0.52391594    -0.08789782
Ti     -0.02702799     6.93117701     1.16941002     1.07531802    -0.38957267    -0.11905292
Ti     -0.01354900     2.89824098     1.37270701    -0.49352472     0.12637028    -0.63824369
Ti      5.60066723     3.06019224     3.76291079    -0.44644266     0.52012151    -0.71449286
Ti      5.74226025    -0.69854276     3.56679183    -0.08902525    -1.37823882     0.50984995
Ti      1.81604425     2.72432524     3.62303781     0.36568017     1.10497056     0.16362352
Ti      1.70647323    -1.11861276     3.71576782    -0.07376961     0.94033505    -1.98057626
O       3.50661300     4.86203401     0.84548702     0.17101956    -2.34159939     0.09967425
O       3.69280100     0.92265599     0.67945301     0.93160615     1.42520235     1.17136855
O      -0.16640698     4.62631999     0.76010301     0.68709518     1.05828805    -0.22530714
O       7.31804400     1.20505201     0.64011101    -0.19827481     0.11316869     0.73645524
O       5.69494222     5.02744322     4.11582180    -1.00505437    -1.99252239     0.39462283
O      -0.11772178    -1.24205976     3.36307584     1.59218348     1.40425916    -1.23352808
O       2.22332821     4.71659821     4.10938880    -0.50852711     0.94367543    -2.10268263
O       1.71789822     1.02068724     4.07048882     0.36244392    -1.60443505     0.71324356
O       3.74066222     3.00546224     3.31970780     0.36703257    -0.89412228    -0.29380444
O      -0.10692275     3.08081021     3.23611680     1.19004454    -0.19493109     0.97039074
O       5.69097001     6.58048198     1.61234498    -0.07265297     0.77855295     0.16900562
O       5.59962999     2.91212802     1.72961499    -0.32933067    -0.36530427    -0.37850406
O       1.95432900    -0.66973202     1.74173897    -1.07025346    -0.85691712     0.22842075
O       1.92417299     2.44657698     1.68421497    -1.23019644     1.22291996     0.40440742
