# total energy = -4990.05298957 eV

CRYSTAL
PRIMVEC
        3.94117542     0.00000000     0.00000000
        0.39312556     3.92151960     0.00000000
       -2.16718545    -1.96079143     5.03613165
PRIMCOORD
6 1
Ti      0.29469315     2.94128888     1.25903266     0.00008767    -0.00008767    -0.00000000
Ti      1.87242204    -0.98056102     3.77709838    -0.00008767     0.00008767     0.00000000
O       0.09832294     0.98037370     0.82034461    -0.00040238    -0.00091737    -0.55442775
O       2.06879214     0.98035406     4.21578655     0.00040238     0.00091737     0.55442775
O      -0.09830113    -0.98035396     3.33841032    -0.00091737    -0.00040238    -0.55442775
O       2.26541614     2.94108167     1.69772083     0.00091737     0.00040238     0.55442775
