# total energy = -19071.04748659 eV

CRYSTAL
PRIMVEC
        5.17600016     0.00000000     0.00000000
        0.00000000     5.50899976     0.00000000
        0.00000000     0.00000000     9.26300011
PRIMCOORD
22 1
Ti      1.73227797     3.33894202     3.25149199     0.06465761     0.82528920     1.10542924
Ti      3.84486701     2.36784398     6.03411102    -1.71739573    -0.30652446    -1.30375342
Ti      4.22749402     2.10467101     1.28178398     1.09254519     1.62613182    -1.09709295
Ti      1.08229702     3.12682000     8.28146098    -2.43637157     0.96408408    -0.37633174
Ti      1.66532800     0.53515701     1.32460998     0.66200532    -1.66754485    -1.71107802
Ti      3.10038500     5.18252698     7.90648598     2.47404699    -1.30224392    -0.62551184
Ti      0.71633899     0.27087901     6.04973800     0.75974327     1.02526119    -1.78354304
Ti      4.29699600     5.09010501     3.40737797     1.47546846    -1.11895608     0.90743752
O       3.31995202     3.30624702     4.42007501    -0.14742891     0.18229334     1.17802745
O       0.98452898     2.16148602     0.52991498     0.07498805    -0.16813555    -0.83188459
O       4.61685603     3.85200598     8.59711600    -1.16100109    -0.15815144     0.20385745
O       3.26339398     0.62835898     0.15288698     1.61925540     2.43678475     0.33540593
O       1.44815699     5.12505902     8.65454200    -1.55086840    -1.40847012    -0.59188128
O       4.36728000     0.89415800     4.73995202     0.93083225    -0.33141789     0.21436941
O       0.96058800     4.70251601     4.37722901    -0.99437015    -0.24650924     1.16604354
O       5.03780901     3.52403103     2.37241300     0.91268283    -1.29017285     0.35053585
O       0.41629602     2.15288297     6.59751001    -0.40609021    -0.08044008     0.69363838
O       2.63619701     1.79179898     2.25498100    -0.11718655     0.99175276     1.81451559
O       2.72163199     3.04745002     7.41330903     0.10235565     1.94964511    -0.53333261
O       5.00463198     0.54352399     1.79693301     0.25841808    -0.85959518     2.21149921
O       2.58200598     0.88934799     6.39629697    -0.57812227    -2.11121201     0.78444669
O       2.70787503     4.64983800     2.49766899    -1.31816368     1.04813168    -2.11079729
