# total energy = -19924.56651079 eV

CRYSTAL
PRIMVEC
        7.37156556     0.00000000     0.00000000
        0.00002468     3.77749902     0.00000000
        0.00000000     0.00000000    11.13726418
PRIMCOORD
24 1
Ti      2.67185271     2.23854249     4.13184558    -0.05146733     0.32803895     1.57286446
Ti      4.69973770     1.53895670     7.00541871     0.05146733    -0.32803895    -1.57286446
Ti      6.35750931     1.53895804     1.43674207    -0.05073920    -0.32804306    -1.57258961
Ti      1.01408115     2.23854132     9.70052238     0.05073920     0.32804306     1.57258961
Ti      2.67184043     0.34979304     1.43678674    -0.05146733     0.32803895    -1.57286446
Ti      4.69975003     3.42770626     9.70047772     0.05146733    -0.32803895     1.57286446
Ti      1.01406882     0.34979159     7.00537405     0.05073920     0.32804306    -1.57258961
Ti      6.35752159     3.42770772     4.13189024    -0.05073920    -0.32804306     1.57258961
O       2.33315582     1.33012168     5.68326067     2.72800214     0.18307110    -0.26343121
O       5.03843464     2.44737751     5.45400362    -2.72800214    -0.18307110     0.26343121
O       1.35268763     1.33013688     0.11466437    -2.72769233     0.18289986    -0.26434061
O       6.01890288     2.44736231    11.02259959     2.72769233    -0.18289986     0.26434061
O       5.03842230     0.55862800     0.11462825    -2.72800214    -0.18307110    -0.26343121
O       2.33316810     3.21887119    11.02263576     2.72800214     0.18307110     0.26343121
O       6.01889060     0.55861280     5.68329679     2.72769233    -0.18289986    -0.26434061
O       1.35269975     3.21888644     5.45396750    -2.72769233     0.18289986     0.26434061
O       0.26784114     2.29768908     3.00845290    -0.92163052     0.29591763     0.57244116
O       7.10374926     1.47981017     8.12881139     0.92163052    -0.29591763    -0.57244116
O       3.95363315     1.47977491     2.56021464    -0.92094198    -0.29581170    -0.57246482
O       3.41795726     2.29772434     8.57704948     0.92094198     0.29581170     0.57246482
O       0.26782886     0.40893951     2.56017908    -0.92163052     0.29591763    -0.57244116
O       7.10376160     3.36855968     8.57708504     0.92163052    -0.29591763     0.57244116
O       3.41794497     0.40897477     8.12884690     0.92094198     0.29581170    -0.57246482
O       3.95364548     3.36852442     3.00841733    -0.92094198    -0.29581170     0.57246482
