# total energy = -19072.34175365 eV

CRYSTAL
PRIMVEC
        5.93400000     0.00000000     0.00000000
        0.00000000     9.29699974     0.00000000
        0.00000000     0.00000000     4.64899994
PRIMCOORD
22 1
Ti      4.49277603     6.93003600     2.41431998    -0.22224110     0.85970060    -0.39694788
Ti      4.36799402     2.18948802     2.28897599     0.12291343     0.60432697    -1.11314847
Ti      1.49564001     7.08941000     2.36501399     0.04886435     0.67023234    -0.42515958
Ti      1.58111299     2.39835999     2.24600002    -0.85658108     1.61269446    -0.37573910
Ti      2.95611202     4.77400600     0.00527098    -1.75149166    -0.66170038    -0.44726284
Ti      3.01162203     0.00630700     0.10414002     1.23420171    -0.95359963    -0.70207057
Ti      5.74410199     4.57580103     4.51961399     2.00051235    -0.04809096     0.14084380
Ti      0.09191200     9.23652399     4.58815297    -1.07228591    -0.74509852     0.57888152
O       4.30365300     5.42763998     1.01582601     1.66404892     1.44558092     1.45936795
O       4.50942802     0.98828900     0.60841498    -0.09976270     0.44596726     1.13226926
O       1.61786800     0.75149102     0.94198001    -1.60677372     1.56995294     0.08384499
O       4.54088501     8.25827698     3.99504699    -0.41084290    -0.33844703    -1.65640580
O       4.29010199     4.07631200     3.63579702     0.60619976    -3.01509574    -1.64373874
O       1.51393198     8.22571501     3.78121799     0.12586326     1.61833675     1.25344462
O       1.50707702     3.86946100     3.60524301    -1.20794791    -0.74167920     0.53520952
O       2.93310699     6.13020400     3.35040098    -0.39198668     0.25536026    -0.37241826
O       2.94287899     1.37482398     3.04997801    -0.98454904    -1.71545841     2.52920283
O       0.02366602     6.19187400     3.35268200     0.24641719    -1.67985684     0.29001257
O       3.05043099     8.03979800     1.72580402    -0.20698982    -0.30193247    -1.58113364
O       3.08197900     3.05460302     1.24329401    -1.03068519     0.83840517     0.24076590
O       5.87399400     8.07942401     1.45898200     0.78865148    -1.71669485     1.48701118
O       5.77148501     2.90167000     1.45875800     3.00446474     1.99709689    -1.01683003
