# total energy = -19071.24558324 eV

CRYSTAL
PRIMVEC
        5.17600016     0.00000000     0.00000000
        0.00000000     5.50899976     0.00000000
        0.00000000     0.00000000     9.26300011
PRIMCOORD
22 1
Ti      1.37614200     3.05274503     3.67742099     1.83049912    -0.39247673     0.32440752
Ti      4.14381501     3.30624299     6.07663100     0.12499911    -1.50018474    -3.32164669
Ti      4.20274699     2.16482402     1.37570099    -0.73746311     1.30840429     0.68942486
Ti      1.43225601     2.81260100     8.04601700    -1.23200804     1.09211658    -0.30369933
Ti      1.60367398     0.44705799     1.44282098    -0.43726228     0.52742241    -0.69604956
Ti      3.36714399     5.29832102     8.15534100    -1.16279263    -0.96962892    -1.42277343
Ti      1.46796098     0.29562101     5.64418201     0.26915681     0.32217040    -0.20724950
Ti      4.10241599     4.85596699     3.34930702    -1.52525378    -0.26151806     1.39885727
O       3.40657701     3.16686803     4.42125100    -2.17941800    -0.21374411    -1.63824326
O       0.50603702     2.00890199     0.28573402     0.82357607    -0.26534360    -1.86670052
O       4.94658600     3.87372601     7.60624001     0.29534710     1.23354659     1.94325180
O       3.28894202     0.76687801     0.44411100     0.37775356    -0.02517677    -1.25568483
O       1.96067500     4.45840199     8.92747400    -0.06237987    -0.50051658     1.57488149
O       3.03691702     0.08514197     4.71297398    -0.54102047     1.52164086    -0.26356543
O       0.39447301     4.35948898     4.81821802     0.13182694     1.21264763     0.27401516
O       5.16708702     3.46055299     2.51057499    -1.03214558     0.57396737    -1.10192226
O       0.27135998     1.79889001     5.49748201     1.13620947    -0.44455264    -0.21430230
O       2.33755901     1.92211200     2.21804999    -0.22011042     0.72763481     1.30117049
O       2.45188299     4.02425498     6.64782498     0.14120221    -0.00556541     0.80353663
O       4.90888302     0.98430800     2.42845197     1.29226752    -3.57411317     1.84329782
O       2.10910001     1.18525602     7.25074800     1.34750435    -0.35913208     0.60930128
O       2.19897601     4.52637598     2.34248798     1.35951167    -0.00759813     1.52969305
