# total energy = -19904.86275357 eV

CRYSTAL
PRIMVEC
        6.67291634     0.00000000     0.00000000
        2.08374995     6.78943306     0.00000000
        0.00000000     0.00000000    12.08277277
PRIMCOORD
24 1
Ti      3.65343948     4.02341178     4.48262252    -0.33457726    -1.85302276     0.58448421
Ti      5.10322669     2.76602144     7.60015032     0.33457726     1.85302276    -0.58448421
Ti      6.60388162     2.76602377     1.55871562     0.20243614    -0.66451677    -0.15468971
Ti      2.15278466     4.02340970    10.52405735    -0.20243614     0.66451677     0.15468971
Ti      2.61156466     0.62869536     1.55876407    -0.33457726    -1.85302276    -0.58448421
Ti      6.14510154     6.16073805    10.52400891     0.33457726     1.85302276     0.58448421
Ti      1.11090970     0.62869283     7.60010187    -0.20243614     0.66451677    -0.15468971
Ti      7.64575650     6.16074059     4.48267096     0.20243614    -0.66451677     0.15468971
O       2.84574390     2.39067485     6.16574646     1.79059430     1.99288183    -0.64158458
O       5.91092229     4.39875843     5.91702638    -1.79059430    -1.99288183     0.64158458
O       1.95820921     2.39070224     0.12439894    -0.63038716    -0.12198398     1.12764744
O       6.79845705     4.39873110    11.95837356     0.63038716     0.12198398    -1.12764744
O       4.86904744     1.00404182     0.12435974    -1.79059430    -1.99288183    -0.64158458
O       3.88761875     5.78539146    11.95841276     1.79059430     1.99288183     0.64158458
O       5.75658220     1.00401448     6.16578566     0.63038716     0.12198398     1.12764744
O       3.00008393     5.78541887     5.91698717    -0.63038716    -0.12198398    -1.12764744
O       1.50989733     4.12971811     3.26385837     0.55162705     1.96677175     1.99794459
O       7.24676885     2.65971517     8.81891447    -0.55162705    -1.96677175    -1.99794459
O       4.39518955     2.65965186     2.77756648     0.57430290     1.84058890     1.13659643
O       4.36147663     4.12978142     9.30520616    -0.57430290    -1.84058890    -1.13659643
O       0.46802241     0.73500151     2.77752788     0.55162705     1.96677175    -1.99794459
O       8.28864370     6.05443178     9.30524475    -0.55162705    -1.96677175     1.99794459
O       3.31960178     0.73506480     8.81895300    -0.57430290    -1.84058890     1.13659643
O       5.43706440     6.05436848     3.26381977     0.57430290     1.84058890    -1.13659643
