# total energy = -19959.90912498 eV

CRYSTAL
PRIMVEC
        5.93400000     0.00000000     0.00000000
        0.00000000     9.29699974     0.00000000
        0.00000000     0.00000000     4.64899994
PRIMCOORD
24 1
Ti      4.40353700     6.74337502     2.24852102     0.93816555     0.73663444     1.05369220
Ti      4.47451798     2.32453601     2.33089000    -0.18470092    -1.10080177     0.36108201
Ti      1.51197101     7.04557502     2.32309199    -0.97660202     0.08544756     0.06492886
Ti      1.46569001     2.51277102     2.32734800     0.05875924    -2.18676519    -0.32797827
Ti      2.89597600     4.66701901     0.01777099     0.74753335    -1.32161051    -0.00040341
Ti      3.00625702     9.18600402     4.51683898    -0.10117192     2.08957771     0.59590223
Ti      0.00450700     4.67181098     0.07603700    -0.48092400    -0.84653654    -0.97681105
Ti      0.01079903     9.17179598     0.17005698    -0.05201369     2.00178762     0.77658091
O       4.46983201     5.61822401     0.78390799    -0.84061118     0.49925803     0.58496424
O       4.54791598     1.01281499     0.75650799    -0.74778249    -0.28217071     0.60684048
O       1.52764301     5.65346901     0.88898698     0.14372601    -0.56706215    -0.35634115
O       1.46808401     0.89360199     0.94355600     0.05990827    -0.11093826    -0.59286601
O       4.48390701     8.50396800     3.70490799    -0.16535799    -1.38661162    -0.41131701
O       4.51836698     3.74082801     3.84303601    -0.55362145     0.32671354    -0.26287097
O       1.41160598     8.45026598     3.79347702     0.84468843    -1.06698507    -1.41424199
O       1.49317500     3.60784699     3.90080099     0.09441557     1.12987376     0.03749493
O       2.82342897     6.17318600     3.33462600     1.34935992    -0.64915854    -0.53862754
O       2.98303100     1.48430297     3.15586400    -0.25439121    -0.47769006     0.33734146
O       0.06385402     5.93820098     3.04293202    -0.70957640     0.10762230     1.27724842
O       0.03569200     1.44678198     2.99994398     0.14684553     0.21518033     0.78982570
O       2.99686401     7.80117103     1.35889400     0.14816656     0.40693919     0.12493046
O       3.02302601     3.29502401     1.43271602    -0.65012013     1.09098555    -0.39213117
O       5.84949997     7.73456999     1.47192298     0.05817714     1.57140947    -0.89715053
O       5.84899202     3.50888698     1.56332501     1.12712834    -0.26509909    -0.44009255
