# total energy = -4990.63870644 eV

CRYSTAL
PRIMVEC
        3.78413247     0.00000000     0.00000000
       -0.00000842     3.78413247     0.00000000
       -1.89209591    -1.89210012     4.82939464
PRIMCOORD
6 1
Ti     -0.00016664     2.83824268     1.20734853    -0.00016455     0.00016455     0.00000000
Ti      1.89219467    -0.94621044     3.62204579     0.00016455    -0.00016455     0.00000000
O       0.00003780     0.94602669     0.78666887     0.00012238     0.00025248     0.08322844
O       1.89199012     0.94600545     4.04272550    -0.00012238    -0.00025248    -0.08322844
O      -0.00002137    -0.94601026     3.20136614     0.00025248     0.00012238     0.08322844
O       1.89204924     2.83804234     1.62802824    -0.00025248    -0.00012238    -0.08322844
