# total energy = -39032.12305446 eV

CRYSTAL
PRIMVEC
        5.93200024     0.00000000     0.00000000
        0.00000000     9.29399984     0.00000000
        0.00000000     0.00000000     9.29399984
PRIMCOORD
46 1
Ti      4.48606198     6.75441397     6.89407300    -1.37891193     1.66924307     1.48132030
Ti      4.47353001     6.96827101     2.37545598    -1.08895130     0.29894510    -0.62386607
Ti      4.45645499     2.50211202     6.89476803    -1.89726323    -0.90218732    -0.24365197
Ti      4.32662601     2.51753198     2.16874803     0.68168558    -1.68535643    -0.52722547
Ti      1.49339498     7.11886602     6.94556301     1.07987993    -1.13744360    -0.56783914
Ti      1.42246898     7.00146799     2.26717801     1.60398562    -0.16972681    -0.26876883
Ti      1.38728499     2.31603700     7.23062100     1.38355689    -1.08817971    -0.95743366
Ti      1.34628799     2.15014501     2.46467199     0.84198543     0.16721561    -0.87085867
Ti      3.11760898     4.65358998     4.55312499    -2.68029068    -1.77734617    -0.61388607
Ti      3.01366502     4.77122301     9.22378299    -0.55305735     1.10632630     0.43192621
Ti      2.97297499     9.12635903     4.76226901    -0.49419912     2.07252203    -0.77984107
Ti      2.92728001     0.02101299     9.23943701     1.22615312     1.10718917     1.27924977
Ti      0.05596600     4.70214299     4.68196001     3.52376015    -1.59768590    -2.01948838
Ti      0.04067902     4.75043100     9.20543700    -0.11075494    -0.27035108     1.14971728
Ti      5.91692102     9.20507102     4.83391601     0.24772665     0.45701967     0.26363279
Ti      5.86696399     9.12089601     9.20706602    -1.47400473     1.77486248     0.46811424
O       4.54641401     5.42000998     5.44583298    -0.92948936     2.25713245     2.11632413
O       4.54685498     5.82818699     0.82328100     0.09717514    -1.84552311    -0.18141736
O       4.27717302     0.95135200     5.57012402     2.19776129     0.38442120    -0.55747939
O       4.40085698     0.66089598     1.10445499     0.09383990     0.34943182    -1.70257872
O       1.64984798     5.82776000     5.57326903    -0.58680823    -1.93775607    -1.71857741
O       1.45056602     5.43956599     0.94963101     0.11209911     0.61613013     0.40953755
O       1.58076500     0.80587398     5.80437401    -1.73301596     0.29615417    -1.33480233
O       1.50283100     0.97236002     0.75767302    -0.17821968    -0.99755112     0.48780967
O       4.23573098     8.17631102     8.33657399     1.48080736     0.92012489     0.67191512
O       4.46316999     8.23810998     3.88813302     0.55890430     1.08424566    -0.30366874
O       4.43387701     4.10708201     8.24964398     0.64613800    -2.23292988    -0.38031618
O       4.69556601     3.61042302     3.65101700    -0.44863890     1.11170068     0.85411230
O       1.44985100     8.42139999     8.34579300     0.05943647    -0.04527534    -0.19495346
O       1.46142500     8.22798597     3.92674999    -0.56511583     1.39456019    -0.62595407
O       1.61632100     3.62181002     8.56207499    -0.64087187     0.55302084    -0.01261307
O       1.47787802     3.72023402     3.46701699     0.10045818     0.68307269     1.70064705
O       2.86612802     6.03227600     7.89671202     0.15410427     0.67523905    -0.64655529
O       3.15108299     5.79969000     3.05219701    -0.33363367     0.89640825     0.49024245
O       3.02259198     1.51953200     7.86539801    -0.27484614    -0.17117820     0.56281135
O       3.09619699     1.52096702     3.10607800    -1.33246468    -0.28838609     0.18717432
O       0.02151698     6.15200198     7.82895997     0.94567086    -1.15137925     0.56458258
O       0.05224302     6.28298298     3.26864903    -1.24903107    -2.35084045     1.10315356
O       5.55446900     1.42007398     8.00377500     2.03392410     0.71574422    -0.90303887
O       3.04863999     7.93296997     6.06901402     0.50958487    -1.64317747     1.22432250
O       2.81142501     7.86994200     1.50344998     1.30149085     0.42338937    -0.33748827
O       2.88384699     3.36446101     6.10590101     0.28471070    -0.27411055    -0.38657450
O       5.91886701     7.97726100     6.18791999    -1.30743164    -0.38937649    -0.17558430
O       0.11731299     7.88999200     1.31360299    -0.53097362    -0.43281992     0.82841797
O       0.12797803     3.34083298     6.13607501    -0.21855131    -0.20553535    -0.09077566
O       0.06717402     2.84260001     1.25786200    -1.15831351     1.58001753     0.75022633
