# total energy = -19517.65725288 eV

CRYSTAL
PRIMVEC
        7.60600008     0.00000000     0.00000000
        0.00000000     7.60600008     0.00000000
       -1.89786986    -1.89786986     4.85670466
PRIMCOORD
23 1
Ti      3.70557502     6.56069102     1.30392301     1.65170325     0.74973550    -0.37349221
Ti      3.79390401     2.86276600     1.07528500     0.80469311    -1.07207663     1.16573526
Ti     -0.03631997     6.51295701     1.24326602    -1.19148744     2.54166497     0.57651508
Ti      0.08903502     2.92807198     1.03434499    -0.80045670    -2.12799438     1.27692986
Ti      5.57576023     2.98992020     3.64995881    -0.27273681    -0.88830567    -2.18321218
Ti      5.71338320    -0.94588878     3.71290179    -0.13449960     0.35315503    -0.03975878
Ti      1.93962221     2.93573224     3.63195482     1.22091476    -0.27021764    -0.05476735
Ti      1.86165223    -0.93660780     3.63428384     0.16420922    -0.07226320     1.70192540
O       3.97627897     4.68867998     0.84038898    -0.97269471     1.01036447    -0.08318370
O       3.44604601     0.97664101     0.72535199     0.62324386    -0.55342425     0.26532329
O      -0.20911497     4.74987901     0.67781102     0.51959803     0.42879923     1.14920384
O       0.11455698     0.86276000     0.87473100     0.01100098     0.28126234    -0.51386061
O       5.87526921     4.80230820     4.00221882    -0.31255010    -1.69001785     0.38853805
O       5.72606224     0.95573221     4.07234280     0.80126866     0.20778481    -1.04874951
O       2.12865422     4.71643025     4.14812780    -1.03737572     0.76276663     0.12597922
O       2.10218425     1.01087920     3.94293081    -1.48985662    -0.92707304     0.83085821
O       3.79897724     2.82376124     3.43491382     0.39142438     0.40218779    -2.03826027
O       3.86345225    -0.81016476     3.23348980    -1.41640506    -0.58903378    -0.05981957
O      -0.07306477    -1.10114176     3.20512479     1.30560796     0.78543683     0.25289817
O       5.67593597     6.64729802     1.66250997    -0.00668461     0.07703619    -0.44889344
O       5.85932500     2.75731098     1.66260703    -0.55135888     0.23567075     0.65762441
O       1.82141899     6.27368401     1.83583198     1.07118959     0.07034721    -2.12634347
O       1.92044298     3.02732102     1.55748798    -0.37874729     0.28419545     0.57881030
