# total energy = -19904.69043074 eV

CRYSTAL
PRIMVEC
        7.85679244     0.00000000     0.00000000
        0.00003092     5.57466863     0.00000000
        0.00000000     0.00000000    12.20653724
PRIMCOORD
24 1
Ti      2.84772782     3.30354344     4.52853825     0.56407865    -0.70527494     1.61472743
Ti      5.00909567     2.27112518     7.67799912    -0.56407865     0.70527494    -1.61472743
Ti      6.77598859     2.27112712     1.57468164     0.56298413     0.70543795    -1.61544554
Ti      1.08083490     3.30354177    10.63185581    -0.56298413    -0.70543795     1.61544554
Ti      2.84771236     0.51620927     1.57473057     0.56407865    -0.70527494    -1.61472743
Ti      5.00911113     5.05845956    10.63180687    -0.56407865     0.70527494     1.61472743
Ti      1.08081944     0.51620719     7.67795012    -0.56298413    -0.70543795    -1.61544554
Ti      6.77600405     5.05846164     4.52858719     0.56298413     0.70543795     1.61544554
O       2.48673536     1.96293562     6.22890254     0.70011834     1.50115611    -1.63624603
O       5.37008813     3.61173308     5.97763484    -0.70011834    -1.50115611     1.63624603
O       1.44172873     1.96295808     0.12567315    -0.69985300     1.50118387    -1.63678776
O       6.41509490     3.61171061    12.08086383     0.69985300    -1.50118387     1.63678776
O       5.37007273     0.82439870     0.12563352    -0.70011834    -1.50115611    -1.63624603
O       2.48675076     4.75026993    12.08090346     0.70011834     1.50115611     1.63624603
O       6.41507944     0.82437630     6.22894210     0.69985300    -1.50118387    -1.63678776
O       1.44174399     4.75029246     5.97759521    -0.69985300     1.50118387     1.63678776
O       0.28547440     3.39082947     3.29729026    -1.88188572     0.54383763     0.13111911
O       7.57134909     2.18383922     8.90924712     1.88188572    -0.54383763    -0.13111911
O       4.21387941     2.18378724     2.80601726    -1.88147743    -0.54352961    -0.13116693
O       3.64294408     3.39088145     9.40051992     1.88147743     0.54352961     0.13116693
O       0.28545894     0.60349509     2.80597823    -1.88188572     0.54383763    -0.13111911
O       7.57136455     4.97117354     9.40055888     1.88188572    -0.54383763     0.13111911
O       3.64292869     0.60354707     8.90928601     1.88147743     0.54352961    -0.13116693
O       4.21389480     4.97112162     3.29725130    -1.88147743    -0.54352961     0.13116693
