# total energy = -39035.94895389 eV

CRYSTAL
PRIMVEC
        7.60600008     0.00000000     0.00000000
        0.00000000     7.60600008     0.00000000
       -3.79573973    -3.79573973     9.71340985
PRIMCOORD
46 1
Ti      2.06936647     4.74045347     6.15966060    -2.68665725    -0.32039814    -0.92564145
Ti      3.93241103     6.89138097     1.27437301    -0.67064063    -0.35470824     0.44767602
Ti      1.88730145     0.74681446     6.11085062    -0.42958393    -0.28304514    -1.14495329
Ti      3.67923199     2.82672702     1.22926399     0.55530861     0.53057999     1.74366393
Ti     -1.83467557     4.52961242     6.20215862     1.22529566     1.45114890    -1.21624075
Ti      0.06591400     6.50082001     1.11175499     0.43802204     1.60207683     1.32458065
Ti     -1.95559956     0.87301546     5.94343365     0.51399508    -0.11862817    -0.62364341
Ti      0.01668200     2.83101103     1.10560198    -0.97737875    -0.22881001     1.42332056
Ti      3.76722147     0.98829948     8.39599361    -0.82112658     1.00987750    -0.35972112
Ti      5.55744499     2.75742300     3.51073000    -0.66579101    -0.26072153     0.65969775
Ti      3.84259245    -2.73870357     8.56323262    -0.55573387    -1.65285948     0.42850741
Ti      5.76306199    -1.12748902     3.67830498     0.84092768     0.69601125    -0.60427734
Ti     -0.11377253     1.05887548     8.36732163     2.52720817     0.86936563     0.21526801
Ti      1.71414402     2.78144903     3.61828601     0.62967085     0.20822961    -0.04791947
Ti      0.07825045    -2.64286756     8.60054861     0.46660860    -1.11947467    -0.63460095
Ti      1.97207099    -0.97300398     3.62657600    -1.21206450    -0.36182325     0.76959471
O       1.90969544    -1.10165157     5.68006964    -0.04337633     1.09069913    -0.15457632
O       3.90685002     1.06861101     0.85351401    -0.60731716    -0.36810498    -0.19385431
O      -1.76745053     2.78201646     5.61462560    -0.43824315     0.04447984     0.10007971
O      -0.10113699     4.73766201     0.59062002     0.42842539    -1.13141462     0.76576942
O      -1.75582954    -0.98995056     5.57862864    -0.18280910     0.33356862     1.09038417
O       0.04355198     0.89975098     0.89243902     0.04562244     1.72646273    -0.92078437
O       3.71355845     2.86278844     8.90910965     0.70187363     0.21272853    -0.73900706
O       5.53780097     4.71753300     4.16730000    -0.39675248    -1.05682098    -0.34181981
O       3.49358444    -0.97510153     8.84158065     1.10721359     1.19656949     0.25559835
O       5.58739499     0.81263099     3.87241302     0.97366093     1.54823817     1.29380170
O       0.22999144     2.89720745     9.14125362    -1.04312059    -1.33495351    -1.01860769
O       2.10818200     4.55375899     4.07913500    -0.46079996     0.33209486     1.25155820
O       0.12213543    -0.73221356     9.09014362    -0.39931638     0.67410699    -1.77582202
O       1.65478499     0.92682601     4.15268201     0.00707208     0.63174291    -0.22659321
O       1.87072847     1.06027446     7.95543064     0.44996276    -0.02480473     0.97097053
O       3.62933201     2.57866502     3.21925499     0.63604128     0.33513519     0.37380897
O       1.91882147    -2.88517957     8.31684161     0.46393903     0.31675129    -1.33305655
O       3.72100202    -0.70600701     3.37524601     2.25233451    -1.18257574    -1.16603351
O      -1.86747054     1.19670144     8.06484962    -2.21145550    -0.78634108    -0.64775009
O      -0.23149901     3.00870801     3.09362100     1.93696263    -0.56483661    -0.01130772
O      -1.80102355    -2.55784153     8.12212661    -1.11661123    -0.72664853     0.28316084
O       0.16542901    -1.20389100     3.17562898    -2.35742274    -0.22060022    -0.02152400
O       3.79540947     4.87720748     6.52958561     2.29254401    -1.03052398     0.83085769
O       5.78719798     6.56771400     1.62437302    -1.04648437    -0.23783767     0.64201138
O       3.72347544     1.16408544     6.28987361     1.35280391    -0.54514735     0.69309639
O       5.51805203     2.94804302     1.62285698     0.71776794     0.64685997    -0.37405940
O       0.08198744     4.69233443     6.59957962    -0.29397824    -0.47018732    -0.05802468
O       1.94860002     6.80801201     1.59810000     0.73448500    -0.94579068    -0.32013614
O       0.01470044     0.99399644     6.38594865    -1.13295677    -0.03755895     0.55843481
O       1.86166700     3.10559999     1.68448501    -1.54812452    -0.09211238    -1.26188659
