# total energy = -19925.89495360 eV

CRYSTAL
PRIMVEC
        4.75524369     0.00000000     0.00000000
        1.71874346     4.76023327     0.00000000
        0.00000000     0.00000000     8.64828416
PRIMCOORD
24 1
Ti      2.74207298     2.82090975     3.20845175     4.56756595    -2.93362620     1.07871239
Ti      3.73191434     1.93932339     5.43983250    -4.56756595     2.93362620    -1.07871239
Ti      4.80130895     1.93932501     1.11565584    -8.88356787     1.84514670     2.95664940
Ti      1.67267840     2.82090827     7.53262850     8.88356787    -1.84514670    -2.95664940
Ti      1.88270137     0.44079324     1.11569052     4.56746156    -2.93383985    -1.08366742
Ti      4.59128597     4.31943999     7.53259383    -4.56746156     2.93383985     1.08366742
Ti      0.81330669     0.44079149     5.43979783     8.88379335    -1.84575425     2.96648002
Ti      5.66068066     4.31944179     3.20848643    -8.88379335     1.84575425    -2.96648002
O       2.11026349     1.67615900     4.41315321    -2.47697779    -0.96959936    -1.18626373
O       4.36372384     3.08407414     4.23513104     2.47697779     0.96959936     1.18626373
O       1.47779076     1.67617820     0.08903896     2.24475001    -0.65141288    -1.81347789
O       4.99619662     3.08405498     8.55924506    -2.24475001     0.65141288     1.81347789
O       3.50435221     0.70395754     0.08901089     2.47699990     0.96980402    -1.18662317
O       2.96963511     4.05627560     8.55927312    -2.47699990    -0.96980402     1.18662317
O       4.13682499     0.70393833     4.41318127    -2.24468265     0.65123522    -1.81388027
O       2.33716229     4.05629482     4.23510298     2.24468265    -0.65123522     1.81388027
O       1.21820617     2.89544364     2.33611731    -0.52540153    -3.88896004    -3.94704025
O       5.25578115     1.86478950     6.31216694     0.52540153     3.88896004     3.94704025
O       3.22369061     1.86474516     1.98805231     2.20737439    -3.96907153    -4.47287038
O       3.25029672     2.89548798     6.66023180    -2.20737439     3.96907153     4.47287038
O       0.35883454     0.51532704     1.98802467    -0.52537607    -3.88903023     3.94762081
O       6.11515278     4.24490610     6.66025944     0.52537607     3.88903023    -3.94762081
O       2.39092509     0.51537138     6.31219448    -2.20726743     3.96897640    -4.47236259
O       4.08306224     4.24486176     2.33608972     2.20726743    -3.96897640     4.47236259
