# total energy = -19075.00721303 eV

CRYSTAL
PRIMVEC
        5.17600016     0.00000000     0.00000000
        0.00000000     5.50899976     0.00000000
        0.00000000     0.00000000     9.26300011
PRIMCOORD
22 1
Ti      1.86914200     3.39547598     3.26564700     0.45684766     0.92246562    -0.20071530
Ti      3.61682400     2.29241902     6.03247301    -1.74116970    -0.14205890    -0.66887119
Ti      4.44861603     2.21239599     1.29463997    -0.40511088     0.82689819    -2.18289053
Ti      0.68335299     3.24386601     8.05784199     1.48222558     0.26052715     1.72791129
Ti      1.80596400     0.47979501     1.25269802     0.17890334     0.69133030    -2.93962561
Ti      3.31821902     4.98950503     8.03019402    -0.55233821     0.24902969     0.99176870
Ti      0.59069702     0.23939201     5.99340999     1.08683836     0.09051135    -0.93392503
Ti      4.41176899     5.14585002     3.43001300    -0.13710567    -0.73583740     0.14848255
O       3.37055999     3.37375501     4.48871602    -0.36599307     0.76958828     0.19104178
O       0.83660097     1.93493900     0.13849399     0.41572182    -0.00300408    -0.13282221
O       4.33426299     3.66588900     9.04578999    -0.87973001     0.27037474     0.08723859
O       3.49329302     0.71681101     0.21210102    -0.19580475     0.56492865    -1.04890841
O       1.55226600     4.76490098     9.02460798     0.05543429     0.23924304    -0.11554876
O       4.45294602     1.03848601     4.69039700    -0.15201165    -0.79340313     0.29453386
O       0.89084000     4.79441198     4.28085303     0.49141950    -0.70828288     1.54492813
O       0.09083698     3.47773098     2.38082798     0.22812404     0.01914367     0.62980327
O       0.01913600     1.83965100     6.92147401     0.22294532     0.08638344    -0.26085882
O       2.64136898     2.04258698     2.14193499     0.20587628     0.36498417     0.63894303
O       2.55140297     3.42910102     7.22287999    -0.94508414    -1.09103800    -1.16337062
O       0.10269701     0.75980402     2.09081302    -0.06426012    -1.23275341     1.58165455
O       2.42042600     0.66674799     6.36248101     0.12142811     0.30468638     0.72710927
O       2.72340802     4.81847700     2.33842898     0.49284389    -0.95371739     1.08412199
