# total energy = -19073.43605926 eV

CRYSTAL
PRIMVEC
        7.60600008     0.00000000     0.00000000
        0.00000000     7.60600008     0.00000000
       -1.89786986    -1.89786986     4.85670466
PRIMCOORD
22 1
Ti      3.88501299     6.60345600     1.14946602     0.18722112    -0.46126636     2.69271014
Ti      3.84584202     2.65113997     1.24934298    -0.22116406     2.20460479     0.63115721
Ti      0.37967700     6.82486800     0.99467500    -0.83951229    -0.62984055     0.68856097
Ti     -0.01036002     2.92173598     0.97664202     0.56503330    -0.17921753     0.98472928
Ti      5.78392020     2.91658121     3.53393982    -1.54736553     0.50837336     0.74620923
Ti      5.96721122    -0.89414879     3.58585983    -0.67669506    -0.40963165     0.40701247
Ti      1.78538424     2.81614025     3.77122681     1.55778390    -1.92606603    -1.54103085
Ti      1.03796821    -1.08436975     4.11236283     2.06342598     1.03850752    -4.07084946
O       3.84640898     4.83445202     0.86929000     0.04427493    -2.18944222    -0.24591762
O       4.02814798     0.87187699     0.68603502     0.31753984     0.66529530     2.79416437
O       0.27031199     4.75614998     0.69605599     0.04640483     0.97556638    -0.09726615
O      -0.23261002     0.98257701     0.61336602     0.78104075     1.12863475     1.42192085
O       5.37379323     4.83581920     4.08060283     1.38950977    -0.62485646    -1.73929486
O       5.53520621     1.03417322     3.91116980     0.98867104    -1.15770622     0.04529386
O       1.73388323     4.74862820     4.20994883    -0.61857680     0.19743894    -2.16032061
O       2.03148320     0.90450124     4.07530079    -1.73044820     0.55451620     0.89712199
O       3.87993823     2.79092521     3.27289779    -1.23786425     0.41008056    -1.01721775
O       0.04222422     2.84274723     3.07066482     0.63021130     0.15077186     0.96734039
O       5.84705697     6.65555001     1.77495300    -1.01802842    -0.21981526    -0.65438251
O       5.78571798     2.87940698     1.59573601    -0.70630004     0.40210140    -0.45814247
O       2.02856802     6.66170302     1.98230301    -0.31309852     0.15227878     0.02399329
O       1.96098499     2.79534601     1.56112200     0.33793667    -0.59032808    -0.31579175
