# total energy = -19961.23924415 eV

CRYSTAL
PRIMVEC
        5.20813045     0.00000000     0.00000000
        0.55294872     5.51537686     0.00000000
        0.00000000     0.00000000     9.33310887
PRIMCOORD
24 1
Ti      2.21537375     3.26840725     3.46251691     0.48919498    -0.64305114     0.43964209
Ti      3.54570558     2.24696966     5.87059229    -0.48919498     0.64305114    -0.43964209
Ti      4.71694824     2.24697153     1.20400041    -0.66351173    -0.33865606     0.35368725
Ti      1.04413110     3.26840565     8.12910894     0.66351173     0.33865606    -0.35368725
Ti      1.93889950     0.51071887     1.20403785     0.48919498    -0.64305114    -0.43964209
Ti      3.82217985     5.00465825     8.12907150    -0.48919498     0.64305114     0.43964209
Ti      0.76765678     0.51071684     5.87055490     0.66351173     0.33865606     0.35368725
Ti      4.99342251     5.00466023     3.46255435    -0.66351173    -0.33865606    -0.35368725
O       1.84310888     1.94205797     4.76261414     0.24352033     0.41472835    -0.29315678
O       3.91797046     3.57331900     4.57049505    -0.24352033    -0.41472835     0.29315678
O       1.15039441     1.94208027     0.09608959     0.05196330    -0.20773519     0.26212535
O       4.61068498     3.57329674     9.23701939    -0.05196330     0.20773519    -0.26212535
O       3.64149620     0.81563040     0.09605933    -0.24352033    -0.41472835    -0.29315678
O       2.11958314     4.69974656     9.23704965     0.24352033     0.41472835     0.29315678
O       4.33421072     0.81560814     4.76264445    -0.05196330     0.20773519     0.26212535
O       1.42686856     4.69976882     4.57046479     0.05196330    -0.20773519    -0.26212535
O       0.52555816     3.35476498     2.52110561    -0.14083943     0.05331416    -0.04805188
O       5.23552112     2.16061198     6.81200358     0.14083943    -0.05331416     0.04805188
O       3.00990790     2.16056062     2.14547866     0.36710919     0.01129126    -0.21088350
O       2.75117144     3.35481629     7.18763042    -0.36710919    -0.01129126     0.21088350
O       0.24908390     0.59707639     2.14544883    -0.14083943     0.05331416     0.04805188
O       5.51199538     4.91830052     7.18766021     0.14083943    -0.05331416    -0.04805188
O       2.47469718     0.59712775     6.81203337    -0.36710919    -0.01129126    -0.21088350
O       3.28638216     4.91824921     2.52107583     0.36710919     0.01129126     0.21088350
