# total energy = -39032.99997108 eV

CRYSTAL
PRIMVEC
        5.93200024     0.00000000     0.00000000
        0.00000000     9.29399984     0.00000000
        0.00000000     0.00000000     9.29399984
PRIMCOORD
46 1
Ti      4.38620899     7.23858502     6.94399400     1.43748297    -1.30756174    -0.76502586
Ti      4.42653002     6.69996502     2.43969397    -0.22043207     1.47522858    -0.24369336
Ti      4.43820399     2.14480201     7.13544800    -0.62268928     0.55976228    -0.82656446
Ti      4.18454001     2.76376498     2.05230898     0.70131878    -2.14484745     0.87293356
Ti      1.53009803     6.84986199     7.03075901    -1.93918560    -0.13565197     0.06666462
Ti      1.44977802     7.09339899     2.23762701     0.58547049    -0.63389955    -1.52361110
Ti      1.44053001     2.49506698     6.78322101     0.45537545    -0.16118714     0.53559698
Ti      1.24337598     1.90588103     2.85164598     1.35137361     0.79231427    -0.92491177
Ti      3.02716502     4.60651400     4.71762503    -0.13049433     1.25048785     0.38037994
Ti      3.02441298     4.76523500     9.00870599    -1.03052475    -0.36549531    -0.16322295
Ti      3.03966101     9.16012001     4.56682401     2.27359986     0.68110271     0.50981704
Ti      2.96871401     0.05462702     0.04807898    -0.72948369    -0.24653700     0.53509099
Ti      0.02390500     4.61740198     4.56117002     0.23370308     0.80735832     1.44825872
Ti      0.01252399     4.74539598     0.08863200     1.36146545     1.24473861    -1.99596201
Ti      0.12007302     9.07772399     4.78177501    -2.68718227     0.22737791     0.27863441
Ti      0.00456997     0.11964401     0.00782701     0.55902951    -0.51718119     0.75649982
O       4.56241602     5.63714501     5.58480901    -0.80430950    -0.84865925    -1.36328836
O       4.33148698     5.66814299     0.73974497     1.66028380    -1.40685135     1.18882558
O       4.40645002     0.75130898     5.52447200     0.13154771     0.68724945     0.57077817
O       4.55100801     1.20949398     0.73670099    -1.34976178    -0.83789969     0.23784667
O       1.33975302     5.69481998     5.49746502     1.20306307    -1.07271734     0.10999595
O       1.63860900     5.77820398     0.58748099    -1.22071395    -0.59620331     1.71334804
O       1.38571201     0.88250398     5.48729402     1.36097308     1.24000700    -0.52791427
O       1.49074602     0.82370900     1.04406301     0.26473425    -0.04355707     0.95127998
O       4.52745502     8.40128602     8.37109799    -0.66271288     0.96702594     0.68189872
O       4.51564199     8.11114999     3.93374201    -0.74516716     0.47072340    -0.68429396
O       4.46501401     3.78008503     8.25092300     0.78863014    -0.83617731     0.81606819
O       4.40788901     3.87718302     3.67319101    -0.24392579    -0.24175989    -1.15023690
O       1.53472902     8.41386499     8.50620298     0.30618816    -0.28026655    -0.33218511
O       1.48854999     8.32106502     3.75719800     0.15338667     0.35724695    -1.08064740
O       1.51595598     3.89497401     8.26933700    -0.77165134    -1.07924923    -0.06305479
O       1.53872700     3.59313300     3.81998197    -0.11738350     0.03176291     0.15654142
O       3.12362498     6.05595901     7.64669900    -0.67247228    -0.40547469     0.72299628
O       2.83292601     6.01624002     3.15571001     0.31485407    -0.44749579     0.41754988
O       2.75316302     1.53368701     7.96720600     1.62857746    -0.38294205    -0.74632236
O       3.16881201     1.60433302     3.14701700    -0.75516567    -1.00129361    -0.16724055
O       0.03824999     6.05840402     7.89174998    -0.59687154     0.05832215     0.39557260
O       0.17085599     5.86574101     3.12527898    -0.45986280     0.73560291    -1.24028700
O       0.10023702     1.46523598     7.93990701    -0.16066573     0.47786207    -1.24389914
O       2.84244401     7.90145302     6.10244501     0.38997839     1.04369806    -0.73283795
O       3.24204702     7.85746702     1.46707497    -2.02982036     0.96618930     0.06523200
O       3.13185602     3.17268300     5.92034998    -1.11759622    -0.34636166     1.18837821
O       0.03427698     7.95947101     6.17888302     0.94654452    -0.65715981     0.62356011
O       5.77565699     7.82767900     1.51512400     1.47867849     0.36182634    -0.07188499
O       5.85879000     3.12736399     5.88127601     0.17014950    -0.42001891     1.17099420
O       0.11417698     2.83351700     1.76256199    -0.68833625     1.98056161    -0.54765880
