# total energy = -4981.91212015 eV

CRYSTAL
PRIMVEC
        3.78603414     0.00000000     0.00000000
       -0.00000705     3.09766412     0.00000000
       -1.89304233    -1.54886746     4.43693412
PRIMCOORD
6 1
Ti     -0.00016432     2.32336354     1.10923365    -0.00312415    -0.01090277     9.74619747
Ti      1.89314908    -0.77456707     3.32770061     0.00312415     0.01090277    -9.74619747
O       0.00003906     0.77440951     0.72274037     0.00337457     0.00704483    -1.51468191
O       1.89294561     0.77438687     3.71419395    -0.00337457    -0.00704483     1.51468191
O      -0.00001831    -0.77440246     2.94120733     0.00104772    -0.00015607     2.72353151
O       1.89300288     2.32319884     1.49572693    -0.00104772     0.00015607    -2.72353151
