# total energy = -19071.78144216 eV

CRYSTAL
PRIMVEC
        5.17600016     0.00000000     0.00000000
        0.00000000     5.50899976     0.00000000
        0.00000000     0.00000000     9.26300011
PRIMCOORD
22 1
Ti      1.68133101     3.57465302     3.26478000     2.23831634     0.98208181     0.48161125
Ti      3.78879301     2.34257000     6.02455498     1.02302253    -2.06073506    -0.84679674
Ti      4.34797498     2.41635202     1.65478499     0.15399757     0.25138713    -1.01110700
Ti      1.53301998     2.62716602     7.99199001    -0.63429858     2.42005895    -2.33639625
Ti      1.64922397     0.74016800     1.26839299    -0.63889803    -0.85324275     2.82571978
Ti      3.05228200     0.00612099     7.88729102     0.84188079    -2.52740717    -2.95290973
Ti      0.47054600     5.20470998     6.26588299     0.52456052    -0.32655568    -0.16063410
Ti      4.39445600     5.12953501     3.54997902    -0.66456074    -0.47678838     0.83945572
O       3.42234099     3.05043099     4.36585403    -0.42611808     1.03791874    -0.10485065
O       0.74653802     1.88941499     0.15832200    -3.21910668     1.02434871     0.86185827
O       0.22732301     3.27381798     6.55364598     0.74997899    -0.58481640    -1.39063643
O       2.96364999     0.98399599     0.01945298     2.00591141     1.47333522     1.97590920
O       1.37623799     4.65812000     7.95408198    -0.64888086    -0.08980995     1.47764799
O       4.02119099     0.37392998     5.28145503    -0.08085840    -0.74961775    -2.47518471
O       1.05128702     4.91682999     4.45125800    -0.98856639    -0.48323105     1.15173946
O       0.21858000     3.94174301     2.10164899    -1.22044013     0.02694491    -0.44952079
O       4.62587897     0.85659102     7.29818397     0.42554010     0.70266116     1.74722054
O       2.48610398     2.34659598     1.99303102     0.26157359    -0.09073684    -0.07604529
O       3.27716402     3.31459198     7.43066800    -1.16133970     1.72502111     2.26611409
O       5.12380100     1.14268699     2.69126701     0.39651491    -0.28405687    -0.33319915
O       2.03199899     1.25476102     6.80902401    -0.14320484    -0.50786634    -1.28806454
O       2.56622301     5.19239899     2.58416402     1.20497571    -0.60889402    -0.20193066
