# total energy = -4982.66116213 eV

CRYSTAL
PRIMVEC
        4.32561285     0.00000000     0.00000000
        0.00000000     3.26328283     0.00000000
        0.00000000    -0.00008628     5.72129291
PRIMCOORD
6 1
Ti      2.16280637     1.63159811     2.86064651     0.00000000     0.00000000     0.00000000
Ti      0.00000000     0.00000000     0.00000000     0.00000000     0.00000000     0.00000000
O       2.16280637     0.63594888     1.11499575    -0.00000000     0.10017433     2.21239961
O       2.16280637     2.62724733     4.60629727    -0.00000000    -0.10017433    -2.21239961
O       0.00000000     0.99561492     3.97564344    -0.00000000    -0.10115675     2.21163162
O       0.00000000     2.26758129     1.74564958    -0.00000000     0.10115675    -2.21163162
