# total energy = -19960.44850587 eV

CRYSTAL
PRIMVEC
        5.35690384     0.00000000     0.00000000
        0.00002936     5.70136564     0.00000000
        0.00000000     0.00000000     9.58767996
PRIMCOORD
24 1
Ti      1.94163739     3.37862400     3.55696095     0.00331878    -0.28101757     0.24363294
Ti      3.41529581     2.32274169     6.03071929    -0.00331878     0.28101757    -0.24363294
Ti      4.61999553     2.32274365     1.23684085     0.01275293     0.28316855    -0.24917547
Ti      0.73693767     3.37862226     8.35083949    -0.01275293    -0.28316855     0.24917547
Ti      1.94162282     0.52794129     1.23687930     0.00239807    -0.28202055    -0.24841931
Ti      3.41531038     5.17342457     8.35080104    -0.00239807     0.28202055     0.24841931
Ti      0.73692310     0.52793917     6.03068084    -0.01278841    -0.28159992    -0.24310586
Ti      4.62001010     5.17342669     3.55699940     0.01278841     0.28159992     0.24310586
O       1.69550423     2.00754782     4.89251980     0.49885359     0.44440892     0.03148034
O       3.66142898     3.69381793     4.69516044    -0.49885359    -0.44440892    -0.03148034
O       0.98299969     2.00757078     0.09871054    -0.49902406     0.44508718     0.03092267
O       4.37393357     3.69379497     9.48896942     0.49902406    -0.44508718    -0.03092267
O       3.66141441     0.84313506     0.09867943    -0.49853143    -0.44401760     0.03190175
O       1.69551880     4.85823064     9.48900053     0.49853143     0.44401760    -0.03190175
O       4.37391899     0.84311210     4.89255091     0.49857771    -0.44416466     0.03153485
O       0.98301415     4.85825365     4.69512933    -0.49857771     0.44416466    -0.03153485
O       0.19464654     3.46789379     2.58987161     0.17180221    -0.10108681     0.12038295
O       5.16228666     2.23347191     6.99780863    -0.17180221     0.10108681    -0.12038295
O       2.87310276     2.23341877     2.20399899     0.17124968     0.10105776    -0.12103267
O       2.48383044     3.46794692     7.38368109    -0.17124968    -0.10105776     0.12103267
O       0.19463197     0.61721091     2.20396837     0.17166594    -0.10067055    -0.12098150
O       5.16230123     5.08415478     7.38371170    -0.17166594     0.10067055     0.12098150
O       2.48381587     0.61726405     6.99783919    -0.17076399    -0.10038336    -0.12036984
O       2.87311733     5.08410165     2.58984099     0.17076399     0.10038336     0.12036984
