# total energy = -19516.26327034 eV

CRYSTAL
PRIMVEC
        5.17600016     0.00000000     0.00000000
        0.00000000     5.50899976     0.00000000
        0.00000000     0.00000000     9.26300011
PRIMCOORD
23 1
Ti      1.93289701     3.18663999     3.42311899    -1.44053796     0.73510875     3.83741454
Ti      3.39414098     2.28041501     6.02737799     0.78105592     0.29045120    -4.61824884
Ti      4.29815098     2.10269602     1.54682500    -0.72774665     0.92700927    -1.56626520
Ti      0.90101402     3.44014098     7.88719900    -2.71531863     0.28600885     0.08658373
Ti      1.75221399     0.30272997     1.28245498     1.86836043     0.03911626     0.39058208
Ti      3.35803400     5.21312702     7.94815599     0.47930420    -0.98190183     1.33967946
Ti      0.79537399     0.53649900     5.89069600    -0.27946745    -0.13855886    -4.95655137
Ti      4.42830202     4.84305998     3.29836101     0.87290245    -0.18855732     4.04955917
O       1.71469802     1.99007800     4.87426599     0.07963712    -0.40867186    -0.09359642
O       3.54950800     3.30640201     4.35565599     1.81445980     1.23635681     0.84831909
O       4.88558298     2.98790801     9.24304499     0.36276814    -0.27130882     0.45538368
O       3.51817399     0.71637301     0.23897502     0.10145474    -0.20116730    -0.83196353
O       1.53609599     4.90374900     8.94670700     0.02749616     0.24762201    -0.02276558
O       4.50083899     0.76887698     4.65852101    -0.81028423    -0.88552348     0.03343284
O       1.26844300     4.65088202     4.49018602    -1.20769080     0.79093822     0.24216278
O       0.17040201     3.28058801     2.60561898    -0.60256756     0.30729039    -0.93837278
O       5.13639198     2.08525402     6.73920600     0.19274950    -0.02228504     1.15024488
O       2.39721300     2.06122201     2.01509702     0.80268045    -1.27599861    -1.58363173
O       2.70610001     3.40346497     7.28225198    -0.05136372     0.37089540     0.90934039
O       0.03747099     0.62436602     2.18198100     1.30896376    -0.05121922    -1.42171593
O       5.07800802     4.75105802     6.84866198    -1.03830929    -0.81912652     2.25239288
O       2.62087199     0.69772100     6.63152902    -0.22695342    -0.74573744     1.26982307
O       2.76641701     4.65777402     2.34185799     0.40840652     0.75925862    -0.83180746
