# total energy = -39035.65709765 eV

CRYSTAL
PRIMVEC
        5.93200024     0.00000000     0.00000000
        0.00000000     9.29399984     0.00000000
        0.00000000     0.00000000     9.29399984
PRIMCOORD
46 1
Ti      4.35906902     6.92478301     6.87161298     1.10022790     0.33787059     1.13302259
Ti      4.42129000     6.91669401     2.43559698    -0.04116903     0.23120808    -0.63531186
Ti      4.39551399     2.31855398     7.05875302     0.45932544     0.73174137    -0.27335465
Ti      4.44007002     2.51638700     2.10811299     0.29031802    -0.57156647     0.76169988
Ti      1.44052202     6.90732302     6.93811600    -1.27752481     0.06698060     1.35937000
Ti      1.44538903     7.00707600     2.25109002     0.40616426     0.62536220     0.37553907
Ti      1.44623100     2.32745903     6.98690800    -0.58808299     0.85067114    -0.06207031
Ti      1.54774201     2.12987302     2.55710602    -0.31393953     0.11894390    -0.79212992
Ti      2.99049298     4.61608798     4.52531402     0.06082307     0.08785463     1.20850095
Ti      2.95671899     4.81647502     9.18064002     0.16442725    -0.21471753    -0.02726167
Ti      3.02176699     9.27880197     4.80140500    -1.27343470    -0.19498739    -1.51999819
Ti      2.98043899     0.06444802     0.12235599     0.15728138    -1.54588483    -1.41766413
Ti      0.05096601     4.63267499     4.50681399    -0.19923049    -0.10861526     1.15675105
Ti      0.02371899     4.68246802     9.27661499    -0.23677581     0.28540773    -0.33926722
Ti      5.90181999     9.24147201     4.83171501     0.86556323    -1.22305880    -0.34982674
Ti      5.93025798     9.27152901     0.08985001    -0.06009339    -1.39722257    -2.12046361
O       4.55727802     5.68187901     5.39406199    -0.80811962    -0.70590229    -0.21168106
O       4.46369498     5.56280899     0.87979999    -0.14395998    -0.67318833     0.33694371
O       4.39171100     0.73459200     5.84006898     0.19911427     0.48739187    -0.99154759
O       4.58637700     0.98572302     0.90370901    -1.05982969     0.13022411     0.20804603
O       1.46708799     5.53396200     5.44168598    -0.01203791     0.28221519     0.34650822
O       1.54986698     5.70100702     0.85189700    -0.40961751    -1.29020756    -0.77972589
O       1.40881102     0.90115398     5.61599400     0.61482401     0.35733822    -0.54722480
O       1.48885998     0.84749499     0.94865500     0.06903260     0.59410477     1.07283382
O       4.49476102     8.24667302     8.44876301    -0.18227740     1.77529108     0.13471069
O       4.46724899     8.42210502     3.73674700     0.04717899    -0.13087897     0.57189043
O       4.42340099     3.77577202     8.35287001     0.39168560    -0.23832850     0.86164075
O       4.38702598     3.75649102     3.60289198     0.44382862    -0.38353700    -0.00601278
O       1.54509502     8.40119998     8.29695402    -0.13906716     0.21554903     0.96957853
O       1.48816200     8.41820800     3.78255200    -0.71797440     0.23277234    -0.30709345
O       1.53083797     3.95300798     8.14107401    -0.44672677    -0.41291752     1.72922744
O       1.56239398     3.72112002     3.65955798    -0.08684007    -1.03592999    -0.07327158
O       2.98658099     6.13984302     7.97589001    -0.32785897     0.37970194    -1.50301450
O       2.87548102     5.97961699     3.07958601     0.78165962     0.28371517     0.82795055
O       2.93960899     1.55453400     7.99180200     0.10160489    -0.43076073     0.10883304
O       3.12620700     1.34981400     3.17270501     0.07287126     0.70608278     0.22202795
O       5.78641702     6.08369700     7.88828799     0.66877606    -0.52887277    -0.28025678
O       0.06034002     5.81746999     2.98497202    -0.36334766     1.14688470     0.82126028
O       0.01375803     1.39140099     7.95101402     0.06294886     0.91950011    -0.51126148
O       2.77028900     7.79481502     6.04918702     1.33129740     0.75146740    -0.82566124
O       3.05386000     7.94663899     1.42639098    -0.36380892    -0.35366206     0.51628156
O       2.96767798     3.22430000     5.99766701     0.53928600    -0.23813206    -0.05409989
O       5.84675301     7.87307198     6.04158999     0.88733611    -0.20468354     0.19794931
O       5.87569203     7.81667698     1.46674598     0.11587581     0.78138785    -0.21295761
O       0.02916502     3.27003198     6.03230801    -0.56227244    -0.68641692    -0.15528903
O       0.17302397     3.17201502     1.55149102    -0.21746141     0.18980405    -0.92411935
