# total energy = -19938.30305212 eV

CRYSTAL
PRIMVEC
        5.62847753     0.00000000     0.00000000
        2.81903677     5.28563670     0.00000000
        0.00000000     0.00000000    10.42447931
PRIMCOORD
24 1
Ti      3.71061099     3.13226342     3.86740749     2.00291942    -3.82587980     0.87036759
Ti      4.73690345     2.15337342     6.55707193    -2.00291942     3.82587980    -0.87036759
Ti      6.00267766     2.15337530     1.34479057    -4.46054939    -0.20166867     1.15590593
Ti      2.44483696     3.13226178     9.07968890     4.46054939     0.20166867    -1.15590593
Ti      2.30109283     0.48944524     1.34483239     2.00291942    -3.82587980    -0.87036759
Ti      6.14642173     4.79619180     9.07964714    -2.00291942     3.82587980     0.87036759
Ti      1.03531852     0.48944321     6.55703011     4.46054939     0.20166867     1.15590593
Ti      7.41219602     4.79619377     3.86744925    -4.46054939    -0.20166867    -1.15590593
O       2.77407950     1.86116258     5.31953202     1.16864010     1.83483991    -1.27704916
O       5.67343502     3.42447430     5.10494740    -1.16864010    -1.83483991     1.27704916
O       2.02546518     1.86118385     0.10732586     1.19828853    -1.08532218     0.79861245
O       6.42204940     3.42445307    10.31715322    -1.19828853     1.08532218    -0.79861245
O       4.26391674     0.78165592     0.10729203    -1.16864010    -1.83483991    -1.27704916
O       4.18359776     4.50398090    10.31718706     1.16864010     1.83483991     1.27704916
O       5.01253112     0.78163469     5.31956580    -1.19828853     1.08532218     0.79861245
O       3.43498334     4.50400220     5.10491357     1.19828853    -1.08532218    -0.79861245
O       1.91919355     3.21502383     2.81591193     0.64176841     1.51968245     1.49683588
O       6.52832096     2.07061304     7.60856743    -0.64176841    -1.51968245    -1.49683588
O       4.12305821     2.07056368     2.39636089     1.43710965     0.81930598     0.14407953
O       4.32445630     3.21507320     8.02811831    -1.43710965    -0.81930598    -0.14407953
O       0.50967527     0.57220546     2.39632761     0.64176841     1.51968245    -1.49683588
O       7.93783923     4.71343137     8.02815158    -0.64176841    -1.51968245     1.49683588
O       2.91493802     0.57225482     7.60860065    -1.43710965    -0.81930598     0.14407953
O       5.53257648     4.71338200     2.81587866     1.43710965     0.81930598    -0.14407953
