# total energy = -4985.86737467 eV

CRYSTAL
PRIMVEC
        2.96977934     0.00000000     0.00000000
        0.00000000     3.80716286     0.00000000
        0.00000000    -0.00005591     4.27291012
PRIMCOORD
6 1
Ti      1.48488967     1.90355343     2.13645516     0.00000000     0.00000000     0.00000000
Ti      0.00000000     0.00000000     0.00000000     0.00000000     0.00000000     0.00000000
O       1.48488967     0.74194906     0.83272730    -0.00000000    -0.25895029    -0.51972221
O       1.48488967     3.06515779     3.44018301    -0.00000000     0.25895029     0.51972221
O       0.00000000     1.16158175     2.96918323     0.00000000     0.25822781    -0.51868477
O       0.00000000     2.64552511     1.30372709     0.00000000    -0.25822781     0.51868477
