# total energy = -19961.42482342 eV

CRYSTAL
PRIMVEC
        7.60600008     0.00000000     0.00000000
        0.00000000     7.60600008     0.00000000
       -1.89786986    -1.89786986     4.85670466
PRIMCOORD
24 1
Ti      3.80947500     6.77879698     1.13179398     1.24112646    -1.29944116    -0.04788013
Ti      3.83568002     2.80320102     1.16096398    -1.25062335     1.05361815     0.46403596
Ti     -0.02635499     6.62292401     1.24355199    -1.23616603    -0.02429205    -0.71255631
Ti     -0.09006300     2.79069899     1.32022300     0.65180883     0.39814190    -0.57355728
Ti      5.65982925     2.81821520     3.71099379    -0.52937260     0.01623215     0.24319123
Ti      5.67737221    -0.93950976     3.64802482     0.23767184    -0.07555549    -0.41400870
Ti      1.95330224     2.81795924     3.65854682     0.48367302     0.35689316    -0.03663001
Ti      1.97781622    -0.93841076     3.50630682    -0.46332607    -0.24628529     0.84149255
O       3.97669702     4.77482602     0.83711697    -0.72317548     0.21422928    -0.81387247
O       3.93402100     0.96139801     0.69838998    -0.56587096     0.13962432     0.14491437
O      -0.26703401     4.70367999     0.81529000     0.79163087     0.84137891     0.48020152
O      -0.06970402     0.98804902     0.69974103     0.18433737    -1.11595277     1.70551543
O       5.49741120     4.73097024     4.05789583     0.67752656     0.01848675     0.16979032
O       5.76220621     0.93011321     4.20902282     0.22831199     0.51531714    -1.13927809
O       2.15711523     4.83543724     3.96353379    -0.93712477    -1.14528264     0.62353311
O       1.85194220     0.93328520     4.01906682    -0.29477066     0.27176596     0.39510234
O       3.78902923     2.60043321     3.25934879     0.10617426     0.35677566    -0.11021655
O       3.79791624    -0.87028178     3.16271383     0.46809059     0.34073583    -0.28007937
O      -0.00625376     2.90882924     3.23795981    -0.22435917    -0.04389543     0.51365518
O      -0.02667778    -1.02128976     3.14050579     0.48211982    -0.22399588     0.85200194
O       5.71677301     6.87825801     1.69158901    -0.46513896    -0.32352203    -0.61636822
O       5.59325399     2.82981202     1.73175298     1.70458315    -0.30292234    -0.28829251
O       1.90606100     6.71297902     1.60386798     0.04795623     0.01642267    -1.15847472
O       1.94817801     2.79363000     1.67974300    -0.61508344     0.26152320    -0.24221960
