# total energy = -19950.59330706 eV

CRYSTAL
PRIMVEC
        5.28068498     0.00000000     0.00000000
        1.90865987     5.28622589     0.00000000
        0.00000000     0.00000000     9.60389566
PRIMCOORD
24 1
Ti      3.04506447     3.13261249     3.56297681     1.81986786    -2.89241834     1.12370465
Ti      4.14428057     2.15361327     6.04091896    -1.81986786     2.89241834    -1.12370465
Ti      5.33184033     2.15361506     1.23893273    -3.80782216    -0.09664189     1.19504225
Ti      1.85750474     3.13261085     8.36496315     3.80782216     0.09664189    -1.19504225
Ti      2.09073467     0.48949968     1.23897124     1.82042682    -2.89123306    -1.12975138
Ti      5.09861039     4.79672618     8.36492464    -1.82042682     2.89123306     1.12975138
Ti      0.90317483     0.48949773     6.04088046     3.80696110     0.09710315     1.19702277
Ti      6.28617024     4.79672818     3.56301531    -3.80696110    -0.09710315    -1.19702277
O       2.34344177     1.86136994     4.90079445     0.50523173     1.26050899    -0.99094441
O       4.84590327     3.42485581     4.70310132    -0.50523173    -1.26050899     0.99094441
O       1.64108255     1.86139126     0.09887751     0.61147824    -0.68738597     0.40938585
O       5.54826255     3.42483453     9.50501799    -0.61147824     0.68738597    -0.40938585
O       3.89157345     0.78174290     0.09884635    -0.50524381    -1.26058021    -0.99027489
O       3.29777159     4.50448285     9.50504916     0.50524381     1.26058021     0.99027489
O       4.59393272     0.78172157     4.90082561    -0.61137513     0.68741580     0.40961905
O       2.59541227     4.50450420     4.70307016     0.61137513    -0.68741580    -0.40961905
O       1.35281459     3.21538216     2.59425182     0.19594127     0.21486229     0.11216236
O       5.83653045     2.07084359     7.00964395    -0.19594127    -0.21486229    -0.11216236
O       3.57989952     2.07079435     2.20772659     1.54487825    -0.19854246    -0.98959535
O       3.60944552     3.21543141     7.39616902    -1.54487825     0.19854246     0.98959535
O       0.39848477     0.57226925     2.20769591     0.19624312     0.21659392    -0.11433314
O       6.79086027     4.71395650     7.39619970    -0.19624312    -0.21659392     0.11433314
O       2.65511570     0.57231849     7.00967453    -1.54470958     0.19816168    -0.98926933
O       4.53422934     4.71390726     2.59422119     1.54470958    -0.19816168     0.98926933
