# total energy = -4987.08322379 eV

CRYSTAL
PRIMVEC
        4.17769102     0.00000000     0.00000000
        1.02834542     4.04914904     0.00000000
       -2.60305626    -2.02460411     5.37446882
PRIMCOORD
6 1
Ti      0.77112341     3.03701684     1.34361712    -0.00009822     0.00009822     0.00000000
Ti      1.83185697    -1.01247176     4.03085135     0.00009822    -0.00009822     0.00000000
O       0.25713016     1.01228150     0.87545699    -0.00070165    -0.00137400    -1.26485981
O       2.34585003     1.01226350     4.49901148     0.00070165     0.00137400     1.26485981
O      -0.25710031    -1.01225828     3.56269123    -0.00137400    -0.00070165    -1.26485981
O       2.86008049     3.03680321     1.81177724     0.00137400     0.00070165     1.26485981
