# total energy = -19886.66786119 eV

CRYSTAL
PRIMVEC
        9.00580936     0.00000000     0.00000000
        0.00002800     3.19496818     0.00000000
        0.00000000     0.00000000    14.32748310
PRIMCOORD
24 1
Ti      3.26418912     1.89333508     5.31539417     0.13252422     0.14467886     2.01278037
Ti      5.74164787     1.30163280     9.01208937    -0.13252422    -0.14467886    -2.01278037
Ti      7.76694018     1.30163383     1.84829036     0.13305130    -0.14488609    -2.01222964
Ti      1.23889687     1.89333417    12.47919330    -0.13305130     0.14488609     2.01222964
Ti      3.26417549     0.29585105     1.84834782     0.13324464     0.14500693    -2.01158198
Ti      5.74166156     2.89911695    12.47913584    -0.13324464    -0.14500693     2.01158198
Ti      1.23888318     0.29584996     9.01203191    -0.13287775     0.14533243    -2.01410603
Ti      7.76695387     2.89911804     5.31545162     0.13287775    -0.14533243     2.01410603
O       2.85040524     1.12500251     7.31120513     1.62205662     0.41021915    -1.68574467
O       6.15543181     2.06996543     7.01627840    -1.62205662    -0.41021915     1.68574467
O       1.65257153     1.12501548     0.14750949    -1.62013215     0.41022789    -1.68672580
O       7.35326558     2.06995246    14.17997361     1.62013215    -0.41022789     1.68672580
O       6.15541812     0.47248127     0.14746296    -1.62032575    -0.40950541    -1.68616273
O       2.85041893     2.72248661    14.18002014     1.62032575     0.40950541     1.68616273
O       7.35325189     0.47246836     7.31125160     1.62024759    -0.40935988    -1.68497257
O       1.65258504     2.72249958     7.01623193    -1.62024759     0.40935988     1.68497257
O       0.32721869     1.94336076     3.87021069    -1.31567023     0.49254590     1.26034932
O       8.67861836     1.25160712    10.45727278     1.31567023    -0.49254590    -1.26034932
O       4.83013528     1.25157750     3.29357659    -1.31689870    -0.49283515    -1.26368199
O       4.17570177     1.94339043    11.03390670     1.31689870     0.49283515     1.26368199
O       0.32720500     0.34587667     3.29353086    -1.31609806     0.49330283    -1.26334132
O       8.67863205     2.84909127    11.03395243     1.31609806    -0.49330283     1.26334132
O       4.17568814     0.34590628    10.45731845     1.31667064     0.49309869    -1.26150838
O       4.83014891     2.84906160     3.87016496    -1.31667064    -0.49309869     1.26150838
