# total energy = -19072.91499831 eV

CRYSTAL
PRIMVEC
        5.93400000     0.00000000     0.00000000
        0.00000000     9.29699974     0.00000000
        0.00000000     0.00000000     4.64899994
PRIMCOORD
22 1
Ti      4.47815798     6.72040502     2.44567098     0.01879863    -1.01384420     0.28608650
Ti      4.31898099     2.52628399     2.21733502     0.06912233    -1.02351875    -0.30167896
Ti      1.64839301     7.33133402     2.37893199    -0.76345569    -1.74222309     1.60059664
Ti      1.48388799     2.39961499     2.17357698    -0.07903857    -0.45710400    -0.13813385
Ti      2.98419202     4.60015202     4.60304498    -0.22226089     0.97868075     0.98229238
Ti      3.01191699     0.08448003     0.07504501    -0.91466360     0.96119493    -1.52841907
Ti      5.86981800     4.64259198     4.34885902     0.55342450     0.08982409     1.97008025
Ti      5.82754901     8.78738798     0.20589001     0.57914352     1.60460885    -0.63462871
O       4.44113600     5.33890298     1.04049498    -0.37380871     1.34069581     0.35859960
O       4.37548802     0.86499800     0.85813701     3.18433250     0.70141340     0.97854294
O       1.51933700     0.94160900     0.85524299    -1.60953946    -0.18807267     0.78052550
O       4.47696400     8.31470098     3.72036700    -0.29400293     0.62585714     0.94301157
O       4.32908700     4.00395002     3.55755901     0.80030681    -1.96860366    -1.81854477
O       1.57341002     8.41984400     3.80998799    -1.36135232     0.51830399     0.10688260
O       1.51484402     3.75696802     3.69831899    -0.76301731    -0.05989773    -0.45707752
O       2.96447202     6.13915001     3.31410302    -1.65091778    -0.08662975     0.06169981
O       3.15989601     1.36520798     3.16524001    -0.39529543     1.13869882    -0.16250406
O       0.12258502     6.36636401     3.71754400    -0.19091245    -1.53899607    -0.52654464
O       2.97338299     7.96257300     1.41176600     1.52186866    -1.05812633    -0.00007559
O       2.88649902     3.08258898     1.12952498     0.23853264     0.75243336     0.35450281
O       5.84593999     7.75837202     1.74832702     1.08406466     1.40439569    -2.63061283
O       0.00014499     3.37651599     1.44553899     0.56867012    -0.97909033    -0.22460034
