# total energy = -4989.50143838 eV

CRYSTAL
PRIMVEC
        3.85353972     0.00000000     0.00000000
       -0.00000778     3.48653633     0.00000000
       -1.92679705    -1.74330316     4.69552371
PRIMCOORD
6 1
Ti     -0.00016845     2.61503325     1.17388070    -0.00051628    -0.00381089     3.09033268
Ti      1.92690303    -0.87179998     3.52164245     0.00051628     0.00381089    -3.09033268
O       0.00003915     0.87162752     0.76486236     0.00073225     0.00281716     0.14112842
O       1.92669528     0.87160565     3.93066089    -0.00073225    -0.00281716    -0.14112842
O      -0.00001976    -0.87161533     3.11262411     0.00006993    -0.00008613     0.65343608
O       1.92675419     2.61484844     1.58289913    -0.00006993     0.00008613    -0.65343608
