# total energy = -4988.86569310 eV

CRYSTAL
PRIMVEC
        3.57495932     0.00000000     0.00000000
       -0.00000796     3.57495932     0.00000000
       -1.78750770    -1.78751168     4.56244317
PRIMCOORD
6 1
Ti     -0.00015743     2.68135489     1.14061067     0.00252637    -0.00274902    -0.00014604
Ti      1.78760100    -0.89390735     3.42183221    -0.00252637     0.00274902     0.00014604
O       0.00003571     0.89373376     0.74318466     0.00040135     0.00171853     1.26677400
O       1.78740775     0.89371369     3.81925826    -0.00040135    -0.00171853    -1.26677400
O      -0.00002019    -0.89371824     3.02440620     0.00169899     0.00031496     1.26649221
O       1.78746361     2.68116563     1.53803673    -0.00169899    -0.00031496    -1.26649221
