# total energy = -19074.86908703 eV

CRYSTAL
PRIMVEC
        7.60600008     0.00000000     0.00000000
        0.00000000     7.60600008     0.00000000
       -1.89786986    -1.89786986     4.85670466
PRIMCOORD
22 1
Ti      3.89139900     6.39942700     1.25960997    -0.09270887     0.86227324     0.78204708
Ti      3.71548100     2.66064601     1.16819900     0.46856110    -0.19993857    -0.14687509
Ti      0.16597099     6.80230002     1.11033600     0.08867095    -0.26777998    -0.37815876
Ti     -0.01224400     3.00023101     1.11918200    -0.52538687     0.04571912    -0.12935482
Ti      5.68751824     3.05118924     3.44807779    -0.79223071    -0.07663921     0.77214447
Ti      6.12018022    -0.59916777     3.64222980    -0.70154144    -1.74349990    -0.40345971
Ti      1.86388324     2.71834220     3.70355679     0.21626405    -0.80780929    -1.33790976
Ti      1.27903925    -1.31501076     3.93031284     1.06278594     3.79444754    -1.71375813
O       4.05379900     4.54917298     0.77163600    -0.01459050     0.60760152     0.02206239
O       3.88328200     0.67484699     0.94280198    -1.16032566     0.99634038    -0.02856291
O       0.00130299     4.89579800     0.63780199     0.26999421     0.22028397    -0.50162601
O       0.28813098     1.09482402     0.72149698     0.45923313     0.12204491     1.07678894
O       5.77801924     5.07377523     3.86844180    -0.20254644    -1.06222184     0.06214693
O       5.23234023     1.03137720     3.98902881     2.02209163     0.38116876     0.12554856
O       1.82206221     4.60850820     4.21512381     0.29506505    -1.74837111     0.10169360
O       1.63055624     0.72109222     3.99984080    -0.14828766     0.59401607     0.77456003
O       3.77922125     2.96180724     3.18515380    -0.32443040    -0.05015273    -0.16631136
O      -0.03020777     3.10741724     3.16064284    -0.04668817    -0.98677716    -0.09296907
O       5.96083903     6.81355900     1.74820700    -0.57781708    -0.29499743    -0.30513272
O       5.69700099     2.57726000     1.40375601     0.30836820     0.94773494     1.84185877
O       2.00893300     6.47266402     2.08199598    -0.18896150    -0.35614626    -0.24208488
O       1.91641700     3.12379300     1.64962001    -0.41551922    -0.97729673    -0.11264753
