# total energy = -4984.42458291 eV

CRYSTAL
PRIMVEC
        3.30277018     0.00000000     0.00000000
        2.43526888     4.56612839     0.00000000
       -0.00001566    -0.00007055     5.35513011
PRIMCOORD
6 1
Ti      2.86901143     2.28302881     2.67756517     0.00000000     0.00000000     0.00000000
Ti      0.00000000     0.00000000     0.00000000     0.00000000     0.00000000     0.00000000
O       2.12597994     0.88985738     1.04363604    -0.24693141     0.63193574     0.02868787
O       3.61204295     3.67620035     4.31149435     0.24693141    -0.63193574    -0.02868787
O       0.74302485     1.39314307     3.72120225     0.24587212    -0.63123203     0.02913138
O       1.69222800     3.17291474     1.63392808    -0.24587212     0.63123203    -0.02913138
