# total energy = -19518.82043122 eV

CRYSTAL
PRIMVEC
        7.60600008     0.00000000     0.00000000
        0.00000000     7.60600008     0.00000000
       -1.89786986    -1.89786986     4.85670466
PRIMCOORD
23 1
Ti      3.72877198     6.71740898     1.21933498     0.73514089    -0.71482094     0.09640663
Ti      3.84687497     2.89309299     1.14592201     0.03341613     0.37675109     1.35371511
Ti     -0.00108000     6.64728500     1.27535501    -0.65884414     0.01113160    -0.25948637
Ti     -0.01554098     2.85637402     1.05724201     0.19237489    -0.19584177     1.14200140
Ti      5.66963824     2.86323824     3.60344783    -1.30042872    -0.08681307     0.27318187
Ti      5.70860420    -1.03698479     3.59371584     0.09551420     0.21662272     0.30652035
Ti      1.94376620     2.88215124     3.70626379     1.56525605    -0.08680253    -0.93623800
Ti      1.93625220    -0.96112776     3.70487380    -0.50617687    -0.04721936    -0.60691375
O       4.09156299     4.81019099     0.76907399    -1.17707769    -0.94954115     0.79805092
O       3.69504100     0.98882400     0.83504800    -0.14751761    -0.80776455    -0.33997273
O      -0.29396701     4.72664999     0.78915298     1.12731268     1.01206166     0.18405814
O       0.05872597     0.86959697     0.81068701     0.12671070     0.07794379    -0.80724853
O       5.89858725     4.74031525     3.87909081     0.11179186    -0.26248659     0.55991114
O       5.68901221     1.02063321     4.09641581     0.62678865    -1.34785505    -1.30219481
O       1.74844820     4.74046622     4.03846280    -0.38315571     0.74016688     0.62854111
O       1.93511823     0.95571322     4.03604880    -0.59268012     0.21882487     0.51126920
O       3.83703921     2.84655222     3.38942982    -0.46132833     0.52793098    -1.62627837
O       3.78433723    -0.97710177     3.35337782    -0.28525680     0.06731356    -0.65870299
O      -0.05732979    -0.76701380     3.17419581     0.95603884    -0.28281477     0.23598596
O       5.65423098     6.69479798     1.61457101    -0.31989600     0.36884083     0.31509781
O       5.72651802     2.56075401     1.61756801     0.25554409     0.68522444     0.41597045
O       1.87988800     6.43800000     1.67232701     0.48094302     0.20878625     0.13302327
O       1.85660499     2.87123702     1.73987198    -0.47446975     0.27036085    -0.41669756
