# total energy = -19958.71340181 eV

CRYSTAL
PRIMVEC
        7.60600008     0.00000000     0.00000000
        0.00000000     7.60600008     0.00000000
       -1.89786986    -1.89786986     4.85670466
PRIMCOORD
24 1
Ti      3.75330300     6.63172597     1.28396202     1.40169449    -0.27403753    -0.87533394
Ti      3.74887600     2.87737299     1.20661102    -0.25034892    -0.19793516    -0.20048981
Ti      0.12767301     6.69374798     1.29112502    -1.32212756    -0.29356713    -1.63274213
Ti     -0.02523699     2.96443598     1.10459401    -0.23312972    -0.53675372     1.12225172
Ti      5.73502322     2.83939224     3.65007480    -2.45381420     2.06627399    -0.28790118
Ti      5.84470923    -0.89124980     3.64208481     0.36426400    -1.19068063    -0.63080034
Ti      1.75830423     2.83778524     3.61104983     0.68397437    -0.68381728     0.07588202
Ti      2.01458022    -1.06840776     3.66039979    -0.65759304     0.97438752     2.39949526
O       3.62150002     4.70182501     0.81522899     0.65032479     2.27361451    -0.73294876
O       3.48622200     0.97901898     0.81959697     0.79857928    -2.59427131     0.36616379
O      -0.12477301     4.75517502     0.68669898    -0.41355490     1.81043114     0.72654337
O       0.13862899     0.97129299     0.61164402    -0.30851861    -0.58007323     3.17117153
O      -1.51090477     4.69947023     4.10350382    -1.00630058     0.23833672     0.25514069
O       5.95018325     1.05041023     4.09124882    -0.76862412    -2.36435135    -0.81662560
O       1.64447022     4.65930821     4.17069981     1.00537087     0.86234549     0.04565947
O       1.74005222     0.86441125     4.15658781     0.21261437     0.53956214    -2.70575438
O       3.70810623     2.75355525     3.09305484     0.50418400    -0.14150329     1.60644411
O       3.93308922    -1.13690377     3.33883079    -1.43528211     0.40539678    -0.08337371
O      -0.19073675     2.63201323     3.14985879     2.45251785     0.42464304    -1.70025007
O       0.13252625    -1.02757676     3.30755980    -1.07834472     0.59883149    -1.63337128
O       5.71964803     6.54997502     1.71418101     0.74009618     0.86055909    -1.10258483
O       5.53166601     2.95057201     1.08773098     2.60233017    -0.48145673     1.99657650
O       1.94558498     6.46566999     1.73318800    -0.42522411     0.35341986     0.00556413
O       1.75044902     3.43019499     1.71999799    -1.06308830    -2.06935469     0.63128345
