# total energy = -4988.10174648 eV

CRYSTAL
PRIMVEC
        3.21315675     0.00000000     0.00000000
        0.75095662     4.97821313     0.00000000
       -0.00000472    -0.00006535     5.04883427
PRIMCOORD
6 1
Ti      1.98205404     2.48907380     2.52441708     0.00000000     0.00000000     0.00000000
Ti      0.00000000     0.00000000     0.00000000     0.00000000     0.00000000     0.00000000
O       1.75292770     0.97016762     0.98394340     0.37749851    -0.47976134    -0.57950758
O       2.21118038     4.00797998     4.06489070    -0.37749851     0.47976134     0.57950758
O       0.22912429     1.51887970     3.50836156    -0.37771859     0.48066174    -0.58018713
O       0.52182715     3.45926800     1.54047254     0.37771859    -0.48066174     0.58018713
