# total energy = -19961.39625159 eV

CRYSTAL
PRIMVEC
        7.60600008     0.00000000     0.00000000
        0.00000000     7.60600008     0.00000000
       -1.89786986    -1.89786986     4.85670466
PRIMCOORD
24 1
Ti      3.80247298     6.66315498     1.13687202     0.44363630     1.44063180     0.30200729
Ti      3.78411402     2.89739901     1.18212498     0.42969783    -1.64856728     0.70994072
Ti     -0.03176598     6.73125400     1.25885902    -0.62896149     0.13398409    -0.17205083
Ti     -0.03731700     2.88206801     1.33558702    -0.05010336    -0.52302557    -1.36381955
Ti      5.67857720     2.91386124     3.72062683     0.09604745    -2.45941947    -0.78145830
Ti      5.65605023    -0.99282775     3.64106381     0.25690164     2.40818816     0.10043864
Ti      1.94400825     2.83318224     3.67202280     0.09140224    -0.68099549    -1.23217645
Ti      1.92871222    -0.97395279     3.54489982    -0.13100958     0.27750852     1.04350060
O       3.84169602     4.76741701     0.76004300    -0.18272940    -0.17824616     0.55886136
O       3.88626402     0.95682100     0.67190397    -0.54942207    -0.73463181     0.25636505
O      -0.09708000     4.69982599     0.75725598     0.23776980     0.95880663     0.91200251
O      -0.13167697     1.03396800     0.73467202     0.32893241    -1.38146427     0.74567393
O       5.69024821     4.74995723     4.16182079    -0.28045887     0.15208929    -0.76341326
O       5.75382325     0.92215422     4.00835479     0.11738273    -0.28491562     0.41059633
O       2.03211425     4.73589820     4.00009084    -0.09013108    -0.28365192    -0.29752097
O       2.01849122     0.90236321     4.12733579    -0.58546946     0.50958435    -1.01112552
O       3.87038621     2.54386220     3.13500579    -0.76147362     1.29471702     0.53281248
O       3.78431125    -0.94841179     3.11385981    -0.35382378    -0.38060954     0.13105792
O       0.00608623     2.74574925     3.32866683     0.55241355     0.59794163    -0.24057718
O      -0.04248780    -1.11868875     3.18226581     0.78470817     0.23286079     0.07693695
O       5.66095698     6.81336998     1.63264797     0.26217703    -0.72599058    -0.30825379
O       5.75314500     2.89719300     1.65105398    -1.00900333     0.37850021     0.19925774
O       1.86138299     6.67269599     1.52024300     0.33715942     0.18260393     0.31298719
O       1.88930598     2.71679198     1.68827202     0.68435695     0.71410180    -0.12204260
