# total energy = -19961.29473784 eV

CRYSTAL
PRIMVEC
        7.60600008     0.00000000     0.00000000
        0.00000000     7.60600008     0.00000000
       -1.89786986    -1.89786986     4.85670466
PRIMCOORD
24 1
Ti      3.69113001     6.70487298     1.29840602     1.37487093    -0.24739807    -0.92298653
Ti      3.78528001     2.97566501     1.26633301     0.11402975    -0.05511933    -1.03603540
Ti      0.09913601     6.56212800     1.17181402    -1.94995339     1.52650205     0.22312196
Ti      0.02270297     2.89016902     1.14025002     0.10563073    -1.35957286     0.37821224
Ti      5.70650723     2.81858923     3.59985980    -0.08373443    -0.56837316    -0.87234014
Ti      5.73288524    -1.06533578     3.60128783     0.34155627     0.51783888     0.07907585
Ti      1.85512822     2.97278825     3.60387583     0.38921785    -1.03068519     0.91950911
Ti      1.86416821    -0.93282979     3.65597582    -0.67224345     0.49646144     1.74819473
O       3.75684801     4.82009300     0.77921202     0.27276381     0.66197652     0.66284632
O       3.66909603     0.97569400     0.78829201     0.32725219    -0.45119638     0.52071723
O       0.11499397     4.71072699     0.68346099    -0.34650102    -0.51857653     0.89455783
O       0.15342002     0.83876198     0.75670500    -0.27518913     0.41517546     0.02237221
O       5.85127520     4.66044425     4.02350884    -0.31522816     0.49026610    -0.17562184
O       5.68875921     0.88143922     4.07427382    -0.28844214     0.02076912    -0.37279981
O       1.77111323     4.80007920     4.14254980     0.09838767     0.09535274    -0.46384981
O       1.85566322     1.08310624     4.21722380     0.42932991    -1.62216692    -1.65357116
O       3.79370324     2.90205625     3.23995582     0.34938374    -0.02415758     0.58421245
O       3.71742721    -1.07615380     3.22314380     0.98442049     0.53261167     0.27012894
O       0.06983621     2.71081222     3.15797780    -1.37149893     0.32307826    -0.22402030
O      -0.02791579    -0.97796078     3.20641080     0.93187149     0.22522204     0.22034876
O       5.80029898     6.62017700     1.65338902    -1.50937438    -0.08596744    -0.23146391
O       5.67489000     2.95990098     1.66300999     1.34413801    -0.35388137    -0.47122065
O       1.85608301     6.37999001     1.69717098     0.82813104     0.73143156    -0.05331056
O       1.93547299     2.88584300     1.62870899    -1.07881960     0.28040873    -0.04607701
