# total energy = -4977.19339426 eV

CRYSTAL
PRIMVEC
        3.76785209     0.00000000     0.00000000
        0.00000000     5.90365936     0.00000000
        0.00000000    -0.00007661     5.90365935
PRIMCOORD
6 1
Ti      1.88392598     2.95179130     2.95182961     0.00000000     0.00000000     0.00000000
Ti      0.00000000     0.00000000     0.00000000     0.00000000     0.00000000     0.00000000
O       1.88392598     1.15052131     1.15053624    -0.00000000    -0.96412188    -0.96412188
O       1.88392598     4.75306130     4.75312298    -0.00000000     0.96412188     0.96412188
O       0.00000000     1.80123893     4.10236705     0.00000000     0.96429903    -0.96429903
O       0.00000000     4.10234367     1.80129217     0.00000000    -0.96429903     0.96429903
