# total energy = -19960.86189569 eV

CRYSTAL
PRIMVEC
        7.60600008     0.00000000     0.00000000
        0.00000000     7.60600008     0.00000000
       -1.89786986    -1.89786986     4.85670466
PRIMCOORD
24 1
Ti      3.82931301     6.54050000     1.23871202     1.04037517    -0.14153774    -0.21714568
Ti      3.84819300     2.69911799     1.18225802    -0.22749026     0.51608385     2.02273517
Ti      0.03531798     6.72017801     1.18454798    -1.17590784    -0.29282150    -1.22970485
Ti     -0.03204401     2.90352498     1.24805698     0.31760489     0.10940228    -0.61070690
Ti      5.68761624     2.87799022     3.63032580    -1.83595294     0.67103401     0.65704051
Ti      5.74762420    -0.78764075     3.66299281    -1.29390146    -0.90176437    -0.79495120
Ti      1.82600521     2.73401125     3.67036483     1.43097062     1.80424197    -0.53025526
Ti      1.86048122    -0.93990876     3.63048482     1.15029321    -1.22855994    -0.27470756
O       3.85730601     4.62272201     0.75739700    -0.22586970     0.43926980     0.54888805
O       3.90891497     0.82509999     0.75540698    -0.54646864     0.73466832    -0.39960743
O      -0.03319502     4.79265098     0.81095101     0.55509212    -0.86339322     0.13157625
O      -0.08822898     1.02046398     0.73547102     1.04368367    -0.12793017     0.23165442
O       5.55760723     4.76541725     4.09855083     0.95539478     0.56499756    -0.44762434
O       5.39630623     0.99070723     3.99869884     1.45660350     0.69642520     1.03699082
O       1.99372223     4.62342624     4.06066782    -0.87804825     1.08450251    -0.30387751
O       1.94698423     0.87259820     4.10428579    -0.14209567    -0.17382798    -0.60620824
O       3.83887022     2.91764925     3.21001883    -0.12687216    -0.50028775    -0.51138438
O       3.88443222    -0.77600780     3.15546182    -2.03125555    -1.00213488     0.24470638
O      -0.07394977     2.83214024     3.22091581     1.76247927    -0.04415049     0.20851757
O      -0.01461778    -0.62857875     3.07842282     0.54870859    -0.56206033     2.08014716
O       5.69378100     6.65250698     1.64301302     0.51126791    -0.40380373    -0.29015681
O       5.78744299     2.71014599     1.61444200    -1.36404298     0.46367934     0.09981155
O       1.89509502     6.70600198     1.66005697     0.42588231    -0.49712864    -0.31871047
O       1.99415700     2.78144098     1.70231199    -1.35045032    -0.34490359    -0.72702700
