# total energy = -4898.35853942 eV

CRYSTAL
PRIMVEC
        5.93291121     0.00000000     0.00000000
       -0.00000734     1.97763707     0.00000000
       -2.96649336    -0.98894722     6.73041299
PRIMCOORD
6 1
Ti     -0.00025391     1.48327496     1.68260283    -0.05149870    -0.03504158    97.38009887
Ti      2.96666426    -0.49458517     5.04780916     0.05149870     0.03504158   -97.38009887
O       0.00006264     0.49438783     1.09632910     0.05057439     0.03531874   -93.99294739
O       2.96634754     0.49430191     5.63408295    -0.05057439    -0.03531874    93.99294739
O      -0.00002722    -0.49447089     4.46153543    -0.00118322     0.00018332    -0.59237262
O       2.96643729     1.48316057     2.26887662     0.00118322    -0.00018332     0.59237262
