# total energy = -19908.06940952 eV

CRYSTAL
PRIMVEC
        6.60114743     0.00000000     0.00000000
        0.35109762     7.01683870     0.00000000
        0.00000000     0.00000000    11.81829673
PRIMCOORD
24 1
Ti      2.60065848     4.15817194     4.38450379    -0.02800267    -1.12006397     0.64253306
Ti      4.35158630     2.85866649     7.43379307     0.02800267     1.12006397    -0.64253306
Ti      5.83610073     2.85866889     1.52459741     0.12881283     0.67703445    -0.58492079
Ti      1.11614413     4.15816981    10.29369959    -0.12881283    -0.67703445     0.58492079
Ti      2.42510981     0.64975286     1.52464478    -0.02800267    -1.12006397    -0.64253306
Ti      4.52713497     6.36708578    10.29365222     0.02800267     1.12006397     0.64253306
Ti      0.94059545     0.64975026     7.43374564    -0.12881283    -0.67703445    -0.58492079
Ti      6.01164941     6.36708838     4.38455122     0.12881283     0.67703445     0.58492079
O       2.21293218     2.47074808     6.03078636     1.50738512     1.47846380    -0.14750399
O       4.73931260     4.54609035     5.78751050    -1.50738512    -1.47846380     0.14750399
O       1.33493628     2.47077640     0.12167598    -1.30163071     1.11860255     0.14908393
O       5.61730857     4.54606210    11.69662054     1.30163071    -1.11860255    -0.14908393
O       4.56376393     1.03767107     0.12163766    -1.50738512    -1.47846380    -0.14750399
O       2.38848085     5.97916737    11.69665887     1.50738512     1.47846380     0.14750399
O       5.44175989     1.03764282     6.03082475     1.30163071    -1.11860255     0.14908393
O       1.51048483     5.97919576     5.78747211    -1.30163071     1.11860255    -0.14908393
O       0.45339242     4.26803891     3.19241684     0.48847147     0.06556367     0.59559447
O       6.49885243     2.74879953     8.62588009    -0.48847147    -0.06556367    -0.59559447
O       3.67795852     2.74873415     2.71676917     0.50830548     0.61700200    -0.07040069
O       3.27428632     4.26810428     9.10152749    -0.50830548    -0.61700200     0.07040069
O       0.27784375     0.75961962     2.71673146     0.48847147     0.06556367    -0.59559447
O       6.67440110     6.25721881     9.10156521    -0.48847147    -0.06556367     0.59559447
O       3.09873765     0.75968500     8.62591774    -0.50830548    -0.61700200    -0.07040069
O       3.85350720     6.25715344     3.19237906     0.50830548     0.61700200     0.07040069
