# total energy = -4988.82466103 eV

CRYSTAL
PRIMVEC
        3.84163879     0.00000000     0.00000000
        1.30461206     3.61333308     0.00000000
       -2.57316047    -1.80669115     4.98196710
PRIMCOORD
6 1
Ti      0.97834829     2.71013841     1.24549183     0.00050574    -0.00050574     0.00000000
Ti      1.59474142    -0.90349694     3.73647538    -0.00050574     0.00050574     0.00000000
O       0.32619303     0.90332830     0.81152178    -0.00036921    -0.00032396    -1.29587530
O       2.24689650     0.90331304     4.17044553     0.00036921     0.00032396     1.29587530
O      -0.32616188    -0.90330647     3.30250533    -0.00032396    -0.00036921    -1.29587530
O       2.89925135     2.70994776     1.67946198     0.00032396     0.00036921     1.29587530
