# total energy = -4983.08622808 eV

CRYSTAL
PRIMVEC
        3.88355769     0.00000000     0.00000000
        0.00000000     2.60783683     0.00000000
        0.00000000    -0.00008358     5.17427981
PRIMCOORD
6 1
Ti      1.94177884     1.30387658     2.58713980     0.00000000     0.00000000     0.00000000
Ti      0.00000000     0.00000000     0.00000000     0.00000000     0.00000000     0.00000000
O       1.94177884     0.50821269     1.00839091     0.00000000    -1.90181769    -0.96734141
O       1.94177884     2.09954051     4.16588870     0.00000000     1.90181769     0.96734141
O       0.00000000     0.79563074     3.59553170    -0.00000000     1.90151096    -0.96822279
O       0.00000000     1.81212241     1.57874786    -0.00000000    -1.90151096     0.96822279
