# total energy = -19074.44005501 eV

CRYSTAL
PRIMVEC
        5.17600016     0.00000000     0.00000000
        0.00000000     5.50899976     0.00000000
        0.00000000     0.00000000     9.26300011
PRIMCOORD
22 1
Ti      1.82403498     3.38682801     3.27854501     1.40879819     0.54336017    -0.14258726
Ti      3.53164202     2.19740102     5.83778298    -0.81425762    -0.10172959    -0.46911569
Ti      4.52918501     2.28659998     1.19900801    -0.62152688    -0.89031216    -0.59284930
Ti      0.68576202     3.29301801     8.09334402     0.86516496     0.26881433     0.89002471
Ti      1.88956400     0.57874200     1.29992503     0.31524205     0.27642917    -0.83424744
Ti      3.11981501     4.90953200     8.06761902     1.80870130     1.54118768     0.58162875
Ti      0.56942398     0.16421301     6.11028202     0.90021786     1.37413071    -1.82338899
Ti      4.46521600     4.91636098     3.39431201     0.15811108     0.66510170     0.29050494
O       3.61004302     3.46471899     4.30833198    -0.55167281    -1.15446637     2.09964667
O       0.97435999     1.94488102     0.17830601    -0.77998069     0.65345794    -1.01942761
O       4.35019202     3.82293600     9.12942402    -0.33869412    -1.11053134    -0.52236454
O       3.37208302     0.77695503     0.18741998     1.89000398     1.66060878    -0.59591174
O       1.69100299     4.76460798     9.11252099    -2.63670866    -1.22598806     0.94336150
O       4.30244399     0.81557502     4.72093799    -0.25621078     0.02244137     1.09380348
O       1.02527600     4.78646898     4.34816998    -0.37357114    -0.70145917     1.98089637
O       0.26295299     3.63988999     2.21840798    -0.20197977    -0.64247804     0.59915828
O       5.09911198     2.18583998     6.77309102     0.18132506    -1.19096139    -0.30536207
O       2.83134901     2.12493199     2.13263401    -0.83450301     0.09113947     0.83281430
O       2.36641499     3.56642400     7.07475100    -0.45980392    -2.15080521    -1.61561292
O       0.10255900     0.77994800     2.13760002     0.30752668    -0.08457364     0.65742129
O       2.29455600     0.64719298     6.76455502     0.15165838     1.17174625    -1.04244002
O       2.76246199     4.79877600     2.48132498    -0.11784039     0.98488740    -1.00595297
