# total energy = -4990.40863830 eV

CRYSTAL
PRIMVEC
        2.99648080     0.00000000     0.00000000
        0.00000000     4.69503618     0.00000000
        0.00000000    -0.00006093     4.69503618
PRIMCOORD
6 1
Ti      1.49824035     2.34748757     2.34751804     0.00000000     0.00000000     0.00000000
Ti      0.00000000     0.00000000     0.00000000     0.00000000     0.00000000     0.00000000
O       1.49824035     0.91498151     0.91499339     0.00000000    -0.10934083    -0.10934083
O       1.49824035     3.77999363     3.78004269    -0.00000000     0.10934083     0.10934083
O       0.00000000     1.43248136     3.26251238     0.00000000     0.10919222    -0.10919222
O       0.00000000     3.26249379     1.43252370     0.00000000    -0.10919222     0.10919222
