# total energy = -39040.36480809 eV

CRYSTAL
PRIMVEC
        7.60629642    -0.00000847    -0.00005503
       -0.00000847     7.60629642    -0.00005503
       -3.80314186    -3.80314186     9.70738094
PRIMCOORD
46 1
Ti      1.90142752     4.75412992     6.09141807     0.00023551     0.00012418    -0.15196665
Ti      3.79869424     6.65565552     1.23251033    -0.05332419    -0.00019129    -0.03949010
Ti      1.90144652     0.95098171     6.09142240     0.00023731     0.00012470    -0.15157687
Ti      3.79869849     2.85250408     1.23253781    -0.05332393    -0.00010953    -0.03948959
Ti     -1.90165997     4.75402462     5.96712069     0.00051011    -0.00028899    -0.15629768
Ti      0.00410625     6.65567592     1.23253165     0.05348848    -0.00034324    -0.03955901
Ti     -1.90167453     0.95087635     5.96722491     0.00049160    -0.00028848    -0.15642855
Ti      0.00411047     2.85249990     1.23255926     0.05348771     0.00009153    -0.03955849
Ti      3.71352640     0.95067277     8.51394162     0.27445559     0.00016635     0.13752862
Ti      5.70487911     2.85220116     3.64357112     0.00008433     0.00041883    -0.28358481
Ti      3.71351735    -2.85247537     8.51395381     0.27447565     0.00016455     0.13790425
Ti      5.70488343    -0.95090814     3.64359853     0.00008408     0.00050831    -0.28358456
Ti      0.08976593     0.95066489     8.51394616    -0.27565836     0.00019463     0.13827655
Ti      1.90171864     2.85221082     3.63875488     0.00023346     0.00009796     0.05873096
Ti      0.08983848    -2.85248335     8.51399494    -0.27624020     0.00019489     0.13849972
Ti      1.90172287    -0.95093909     3.63878235     0.00023423    -0.00007019     0.05873122
O       1.90159316     2.85235881     5.67634143    -0.00006402     0.00010207     0.15979361
O       3.77755618     4.75393416     0.78439200     0.03740262    -0.00002443     0.01845924
O       1.90159738    -0.95080778     5.67636882    -0.00006351    -0.00028436     0.15979515
O       3.77756245     0.95078590     0.78440934     0.03744145    -0.00002417     0.01888425
O      -1.90151914     2.85236291     5.64873061     0.00010079     0.00006273    -0.25655428
O       0.02566817     4.75393774     0.78449360    -0.03758569    -0.00002391     0.01817565
O      -1.90151486    -0.95075548     5.64875808     0.00010027    -0.00052656    -0.25655428
O       0.02567904     0.95078950     0.78448555    -0.03757437    -0.00002263     0.01880763
O       3.90151768     2.85234477     8.87080180     0.26706778    -0.00029671     0.00056873
O       5.70466208     4.75392227     4.02416426     0.00006042    -0.00004731    -0.00930277
O       3.90152182    -0.95082524     8.87082940     0.26706855     0.00044994     0.00056899
O       5.70466382     0.95077403     4.02419998     0.00004782    -0.00004757    -0.00936962
O      -0.09838095     2.85235090     8.87079450    -0.26648851    -0.00040649     0.00044634
O       1.90150976     4.75393054     4.07756255     0.00021160    -0.00004628     0.12480705
O      -0.09837662    -0.95082563     8.87082214    -0.26648929     0.00052965     0.00044532
O       1.90150934     0.95078232     4.07760276     0.00022111    -0.00004525     0.12439285
O       1.90164949     0.95084184     8.06260380    -0.00167225    -0.00011030     0.28045527
O       3.80668430     2.85240480     3.21708805    -0.02728276     0.00000823     0.01719580
O       1.90165461    -2.85230640     8.06266127    -0.00108064    -0.00011133     0.27990891
O       3.80668860    -0.95073402     3.21711556    -0.02728301    -0.00008433     0.01719554
O      -0.00352628     2.85240965     3.21712083     0.02733701     0.00001543     0.01730379
O      -0.00352200    -0.95072392     3.21714831     0.02733701    -0.00005836     0.01730353
O       3.89440897     4.75386684     6.54519074    -0.10384432    -0.00005528    -0.03428876
O       5.70471682     6.65547748     1.61643555    -0.00004062     0.00006273    -0.11674767
O       3.89434645     0.95071853     6.54516791    -0.10348283    -0.00005579    -0.03365241
O       5.70472096     2.85229871     1.61646309    -0.00004011     0.00015889    -0.11674690
O      -0.09128090     4.75387665     6.54520838     0.10443671    -0.00001003    -0.03383959
O       1.90155916     6.65547477     1.64107410     0.00020260    -0.00001311     0.14886487
O      -0.09126758     0.95072841     6.54521477     0.10428115    -0.00001003    -0.03331714
O       1.90156331     2.85229234     1.64110166     0.00020337     0.00012058     0.14886590
