# total energy = -4879.29397708 eV

CRYSTAL
PRIMVEC
        5.70472232     0.00000000     0.00000000
       -0.00000706     1.90157411     0.00000000
       -2.85239746    -0.95091079     6.47155095
PRIMCOORD
6 1
Ti     -0.00024415     1.42622593     1.61788734    -0.06320262    -0.04183084   117.32187909
Ti      2.85256178    -0.47556266     4.85366266     0.06320262     0.04183084  -117.32187909
O       0.00006023     0.47537291     1.05416260     0.06112826     0.04128910  -113.33461031
O       2.85225725     0.47529030     5.41738746    -0.06112826    -0.04128910   113.33461031
O      -0.00002617    -0.47545278     4.28993791    -0.00087675    -0.00003600    -0.46800934
O       2.85234354     1.42611593     2.18161214     0.00087675     0.00003600     0.46800934
