# total energy = -19956.77194653 eV

CRYSTAL
PRIMVEC
        4.98267932     0.00000000     0.00000000
        0.79103912     5.24374754     0.00000000
        0.00000000     0.00000000     8.94322625
PRIMCOORD
24 1
Ti      2.27475063     3.10743988     3.31787318     1.16946542    -0.60177592     0.37381051
Ti      3.49896775     2.13630751     5.62535327    -1.16946542     0.60177592    -0.37381051
Ti      4.61950938     2.13630928     1.15370428    -1.75457467    -0.58857510     1.12332182
Ti      1.15420902     3.10743831     7.78952228     1.75457467     0.58857510    -1.12332182
Ti      1.87923118     0.48556621     1.15374015     1.16942608    -0.59879009    -0.37210613
Ti      3.89448721     4.75818133     7.78948641    -1.16942608     0.59879009     0.37210613
Ti      0.75868954     0.48556428     5.62531741     1.75507578     0.59352807     1.12223707
Ti      5.01502885     4.75818325     3.31790905    -1.75507578    -0.59352807    -1.12223707
O       1.85558777     1.84641259     4.56365994    -0.63715482    -0.23770089    -0.48929114
O       3.91813061     3.39733480     4.37956646     0.63715482     0.23770089     0.48929114
O       1.19286083     1.84643378     0.09207552     0.85385108    -0.87256100     0.11891331
O       4.58085760     3.39731365     8.85115068    -0.85385108     0.87256100    -0.11891331
O       3.52261115     0.77546098     0.09204651     0.63767419     0.23767029    -0.48999691
O       2.25110723     4.46828641     8.85117969    -0.63767419    -0.23767029     0.48999691
O       4.18533814     0.77543983     4.56368900    -0.85230507     0.87131916     0.11924909
O       1.58838020     4.46830762     4.37953745     0.85230507    -0.87131916    -0.11924909
O       0.66218709     3.18954450     2.41578857    -0.51543618    -0.36957025    -0.79677000
O       5.11153129     2.05420284     6.52743789     0.51543618     0.36957025     0.79677000
O       2.98225867     2.05415407     2.05585311     0.48005676    -0.79488409    -0.74591047
O       2.79145970     3.18959327     6.88737320    -0.48005676     0.79488409     0.74591047
O       0.26666763     0.56767067     2.05582451    -0.51508497    -0.36943989     0.79859162
O       5.50705075     4.67607667     6.88740175     0.51508497     0.36943989    -0.79859162
O       2.39594024     0.56771944     6.52746639    -0.47983025     0.79464009    -0.74781617
O       3.37777814     4.67602790     2.41576002     0.47983025    -0.79464009     0.74781617
