# total energy = -4989.90107243 eV

CRYSTAL
PRIMVEC
        3.97553155     0.00000000     0.00000000
        0.19864392     3.97056566     0.00000000
       -2.08712302    -1.98531640     5.07524973
PRIMCOORD
6 1
Ti      0.14882234     2.97807502     1.26881230     0.00026045    -0.00026045     0.00000000
Ti      1.93822959    -0.99282624     3.80643716    -0.00026045     0.00026045     0.00000000
O       0.04970280     0.99263492     0.82671668    -0.00039235    -0.00110018    -0.60155017
O       2.03734896     0.99261375     4.24853283     0.00039235     0.00110018     0.60155017
O      -0.04968319    -0.99261627     3.36434155    -0.00110018    -0.00039235    -0.60155017
O       2.13673495     2.97786488     1.71090802     0.00110018     0.00039235     0.60155017
