# total energy = -19958.92766176 eV

CRYSTAL
PRIMVEC
        5.93400000     0.00000000     0.00000000
        0.00000000     9.29699974     0.00000000
        0.00000000     0.00000000     4.64899994
PRIMCOORD
24 1
Ti      4.45983897     6.79634698     2.34741499    -0.21553900     2.04675391     1.39967797
Ti      4.43778800     2.48082301     2.35312899     0.39075537    -3.73624905     0.07765686
Ti      1.47477000     6.92091600     2.13304602     0.96510455     1.33017177     1.59492530
Ti      1.48195099     2.55826402     2.30881802     0.14409496    -2.73359764     2.17255958
Ti      2.99935602     4.64816601     0.01734802    -0.64184375    -0.58233220    -0.86444968
Ti      2.89045001     9.11144200     4.62722102     1.70842926     0.81422265    -1.96451072
Ti      5.90304398     4.67344502     0.02994900     0.25519957    -0.56479521    -0.56997676
Ti      0.03690202     9.25966603     0.19718499    -2.51890736     1.13796502    -1.71380519
O       4.32710402     5.65253798     0.82993699     1.14462187    -0.58320972    -1.17188406
O       4.49861698     0.96653198     1.00036202     0.66136640    -0.88951538    -1.23391246
O       1.44163599     5.52678700     0.88809802     0.21290002     0.70546520    -0.42437488
O       1.60792301     0.84937298     0.75577100    -0.86597101     0.62148806     1.05010217
O       4.58612803     8.28298098     3.72078098    -0.71305202     0.74973319     0.52116435
O       4.39030699     3.55927502     3.82629400     0.12349322     2.31597011     2.01097777
O       1.44849699     8.30135402     3.56909502     0.79631260     0.08589545     1.37437316
O       1.40774500     3.73343202     3.84134301     0.68847972     0.38121709    -0.19152746
O       3.01663699     5.88591499     2.97059603    -1.37063041    -0.05067466     1.77636786
O       2.88811502     1.44325401     3.17300902     0.50654119     0.81955975    -0.81662715
O       5.83409001     5.94956702     3.29499401     1.06880130     0.43167938    -1.35067118
O       0.05863702     1.61637397     3.23258300     0.37686576    -0.29532653    -0.80947382
O       3.04950800     7.87036301     1.38581801    -1.30509451    -0.50706750     0.14851726
O       3.08496499     3.55682001     1.56190899    -1.08690753    -0.83072785    -0.56498727
O       5.89996898     7.82598002     1.41618500     0.85617767    -0.38242988    -0.19892324
O       0.07431400     3.46507698     1.49799099    -1.18119737    -0.28419545    -0.25119816
