# total energy = -19517.07836213 eV

CRYSTAL
PRIMVEC
        5.17600016     0.00000000     0.00000000
        0.00000000     5.50899976     0.00000000
        0.00000000     0.00000000     9.26300011
PRIMCOORD
23 1
Ti      1.99497199     3.20916299     3.33340201    -1.55588231    -0.99059217     2.83826626
Ti      3.35803299     2.21329300     5.90946401     0.61667855     1.50901623    -3.29707670
Ti      4.22508002     2.17150800     1.47192203     0.95605452    -0.49894924     0.37706862
Ti      0.85614100     3.37782999     7.88550098    -1.77198387     1.40950653    -0.55861633
Ti      1.87918202     0.00741102     1.42858701    -0.85486024     1.20469443     0.72985238
Ti      3.35631200     5.28309399     7.94569801     0.33183827    -0.40797432     1.09874103
Ti      0.72081202     0.61752800     5.81117003    -0.15248293     0.29231140    -3.58208565
Ti      4.52169101     4.83156901     3.37225002     1.75311994     0.94167768     2.86990755
O       1.57208300     2.11398898     4.84762901     0.70547523    -1.01211873     0.35230940
O       3.46577501     3.58160800     4.53448001     0.92829431     0.48969095     0.36065623
O       4.95974500     3.15671798     0.08023698     0.03340893     0.09311973    -0.01314606
O       3.65024901     0.93950499     0.06659902     0.04489868    -0.90611623    -0.44593204
O       1.74120398     4.87797902     9.00796900    -0.29075639    -0.71302476    -0.51623143
O       4.32759398     0.85685402     4.73315199    -0.67028427    -0.33004569     0.28320815
O       1.08128100     4.86453500     4.31486002     0.24828381    -0.00930817     0.66666544
O       0.20703298     3.22758498     2.77032800    -0.85778461    -0.80868938    -1.75869435
O       5.03097601     2.11753002     6.81628702     0.45623677     0.30654812     0.81912497
O       2.48331898     1.65732102     2.14514900     0.08998042     0.95929669     0.34265747
O       2.56131399     3.43164202     7.11065800     0.34805473     0.83317837     1.21216272
O       0.02797501     0.64762500     2.19396999     0.69224947    -0.16897348    -1.61084661
O       5.01753697     4.91022898     7.01708899     0.44018871    -1.32668767     1.34079069
O       2.49720501     0.83304300     6.78470202    -1.39927816    -1.37514861     0.62285640
O       3.10706301     4.24971301     2.20484897    -0.09144955     0.50858882    -2.13163840
