# total energy = -19946.60269229 eV

CRYSTAL
PRIMVEC
        5.62222182     0.00000000     0.00000000
        2.03210553     5.62812110     0.00000000
        0.00000000     0.00000000    10.22504315
PRIMCOORD
24 1
Ti      3.24200894     3.33521926     3.79341810     0.87434972    -2.73584221     1.00290673
Ti      4.41231862     2.29290169     6.43162516    -0.87434972     2.73584221    -1.00290673
Ti      5.67668572     2.29290360     1.31906271    -2.08249097    -0.61198269     0.62827834
Ti      1.97764186     3.33521752     8.90598066     2.08249097     0.61198269    -0.62827834
Ti      2.22595631     0.52115886     1.31910370     0.87434972    -2.73584221    -1.00290673
Ti      5.42837126     5.10696220     8.90593967    -0.87434972     2.73584221     1.00290673
Ti      0.96158912     0.52115679     6.43158417     2.08249097     0.61198269     0.62827834
Ti      6.69273846     5.10696433     3.79345909    -2.08249097    -0.61198269    -0.62827834
O       2.49500766     1.98175705     5.21776125     1.34102569     1.86289297    -0.91725733
O       5.15931990     3.64636390     5.00728201    -1.34102569    -1.86289297     0.91725733
O       1.74722222     1.98177975     0.10527258     0.07016415    -0.61823124     1.01846242
O       5.90710540     3.64634124    10.11977040    -0.07016415     0.61823124    -1.01846242
O       4.14326725     0.83230339     0.10523940    -1.34102569    -1.86289297    -0.91725733
O       3.51106030     4.79581757    10.11980358     1.34102569     1.86289297     0.91725733
O       4.89105275     0.83228067     5.21779443    -0.07016415     0.61823124     1.01846242
O       2.76327475     4.79584029     5.00724882     0.07016415    -0.61823124    -1.01846242
O       1.44031006     3.42334221     2.76203925     0.41462525     1.46106797     1.35898768
O       6.21401749     2.20477875     7.46300401    -0.41462525    -1.46106797    -1.35898768
O       3.81143531     2.20472632     2.35051488     1.21885967     1.00978314     0.18988555
O       3.84289225     3.42339463     7.87452821    -1.21885967    -1.00978314    -0.18988555
O       0.42425742     0.60928169     2.35048221     0.41462525     1.46106797    -1.35898768
O       7.23007014     5.01883926     7.87456088    -0.41462525    -1.46106797     1.35898768
O       2.82683960     0.60933412     7.46303657    -1.21885967    -1.00978314     0.18988555
O       4.82748795     5.01878683     2.76200664     1.21885967     1.00978314    -0.18988555
