# total energy = -19960.52124915 eV

CRYSTAL
PRIMVEC
        7.60600008     0.00000000     0.00000000
        0.00000000     7.60600008     0.00000000
       -1.89786986    -1.89786986     4.85670466
PRIMCOORD
24 1
Ti      3.80340502     6.62500399     1.30965601     0.97187581     2.13881538     0.91451397
Ti      3.77918199     2.99213301     1.11120899     1.01795411    -2.15092554     1.70470682
Ti      0.04624099     6.51463699     1.25267098    -1.00341169     0.71540252    -0.71456203
Ti      0.04511400     2.86349198     1.15780998    -0.87260805    -0.93715485    -1.52155268
Ti      5.69914722     2.88921121     3.58546279    -1.28292567    -2.55365737    -1.31799553
Ti      5.75229821    -1.14290480     3.69460380    -2.45503419     1.95011202     0.01735135
Ti      1.84934923     2.99638125     3.62253779     1.58234926     0.20143264    -1.02306727
Ti      1.76905923    -0.87668975     3.68766882     2.71030163    -0.40237317     1.10552592
O       3.72176398     4.83449102     0.71388398    -0.25259864     0.04288730     0.07621575
O       3.88905199     1.01668602     0.91882099    -0.56743779    -0.51214414    -1.11850794
O       0.15763402     4.72706602     0.69654898     0.39384918    -0.27078894     0.43833700
O       0.00117700     0.87217100     0.79402798     0.41522509    -0.92958886     0.22064290
O       5.51137820     4.62814121     4.00119984     0.48533678     2.16053915     1.21516577
O       5.53810721     0.88696420     4.02683281     1.16664852     0.30127298     0.32258949
O       2.08375824     4.90402824     4.08464283    -0.95440362    -1.23246261     0.39119709
O       1.95471223     1.06682425     4.02657679    -0.87016113    -0.57162946    -0.01832374
O       3.79401721     2.97530824     3.23450582    -0.84835226    -0.13479708    -0.61112162
O       3.77259024    -0.88139980     3.26954979     0.69476401    -0.24758241    -0.84110663
O      -0.03987075     3.07801123     3.06335879     1.31753685    -0.15745622     1.44218706
O      -0.03765276    -1.16798976     3.17851183     1.17297498     0.57846449     1.31199278
O       5.79551400     6.34614198     1.73043702    -1.20875086     0.46176310    -0.86650374
O       5.70590201     2.92265601     1.60015199    -0.33318450     0.04591915    -0.35951646
O       1.94022003     6.46888999     1.75631400    -0.86838167     0.73414716    -0.89199701
O       1.93198301     2.69084398     1.58886300    -0.41156615     0.76980503     0.12382926
