# total energy = -39030.41463974 eV

CRYSTAL
PRIMVEC
        7.60600008     0.00000000     0.00000000
        0.00000000     7.60600008     0.00000000
       -3.79573973    -3.79573973     9.71340985
PRIMCOORD
46 1
Ti      1.88116845     4.69703543     6.12729760     2.21684196    -0.20492677    -0.70628796
Ti      3.84054501     7.04062901     1.20776600    -1.35484511    -1.22897465     0.81988345
Ti      2.14090547     0.76923242     5.89991961    -0.19762817    -0.38330072     2.13688422
Ti      3.68309599     2.89967299     1.25524998    -1.40934635     1.99780678    -0.09874043
Ti     -1.81843756     4.41768445     6.05455865    -1.86366276     0.43286235     0.94025509
Ti      0.00027401     6.82626100     1.22875000     0.36565780    -0.16378936     0.27425608
Ti     -1.78262353     0.68542345     6.00549365     1.19881020    -0.70245470    -1.39280875
Ti     -0.36767902     3.10294998     1.03554299     1.20583266     0.35848210     0.81448387
Ti      3.82082945     1.27768847     8.64438164     1.47648199    -1.75930936    -2.23102006
Ti      5.73232500     2.62980900     3.69106402     0.48888259    -0.50858702     0.17249666
Ti      3.93365946    -2.69255354     8.57092564     0.47422396     1.39501759    -1.83152113
Ti      5.30877698    -1.24628598     3.59029698     1.96390137     0.55480699     0.80183430
Ti      0.18756047     1.28874245     8.28801764    -2.20245612    -1.37870033     0.05684583
Ti      1.85941302     2.62336002     3.54712501    -0.69219316     1.31345214    -0.61461241
Ti      0.14987046    -2.64918657     8.39378562    -1.59028446     3.45736267    -0.55902874
Ti      1.56276102    -1.23702501     3.71358501     0.07196829    -0.36221458    -0.33320558
O       1.92497845    -1.06966556     5.82885460     0.01106655    -0.41974689    -1.31294537
O       3.54017802     1.20442499     0.94713203     0.25086571    -2.00469965    -0.53893093
O      -1.60771653     2.56329343     5.72401363    -0.35776657    -0.07536446    -0.81438180
O      -0.10859601     4.94961199     0.69241499    -0.09798144     0.60469566     1.60104376
O      -1.73159354    -1.08508753     5.47882163    -0.61516314    -0.94946093     0.10127836
O       0.03614201     1.34066802     0.92430898    -0.60256216    -3.16009367    -0.37266791
O      -3.40072955     3.09837444     8.89772064    -1.24659109    -0.74031061     1.79974563
O       5.32656400     4.37664998     4.30251902    -0.41684411     2.54782534    -2.01446676
O       3.92914346    -0.69463753     8.77000863    -0.27253164    -1.15367010     1.25320320
O       5.78289598     0.63947398     3.66265700    -0.26847212     1.24648722     1.43818925
O       0.35561346     3.36165743     8.97596463    -0.02770982    -5.24615154     0.99944113
O       1.81922201     4.52292003     4.17136202     0.78046842    -0.19666221     0.31025719
O       0.17454546    -0.76484756     9.00761864     0.18751988     0.06134269     0.33081034
O       1.63771903     0.74845698     4.07813998     0.23588158     1.26491278    -0.47288493
O       2.02758047     0.93543043     8.08479860     1.11533211     1.42028563    -0.76271109
O       3.87865799     2.62798900     3.33912401    -2.96130233    -0.60729119    -0.76108436
O       2.11943246    -2.77480457     8.04757262    -1.96353190     0.51107533     1.11713754
O       3.56008398    -0.84682198     3.20610498     1.18485451    -0.74490311     0.16004249
O      -1.57939957     1.07134744     8.76107961     0.25415544     0.94670368    -1.81644726
O      -0.09624501     3.09514101     3.36579898    -0.13383831    -1.29675770    -1.27849309
O      -1.80587653    -2.98498356     7.95902264     0.00991161     1.61446595     1.43715438
O      -0.18413601     6.20690301     3.29573502     0.23743221     0.58062370    -0.83577210
O       3.79435747     4.47020847     6.54216564     0.74434955     0.05696333    -0.52047889
O       5.58497501     6.48243602     1.50392698    -0.43006987     0.47701258     0.68210878
O       4.10111146     0.75104746     6.39371861    -2.60347046     0.90419612     0.75809339
O       5.44012300     3.45916199     1.63361700     1.73680268    -0.75783371    -0.10136732
O      -0.02281955     4.62844247     6.50579560     2.76405545     0.08495365    -0.25742486
O       1.77264398     6.38992102     1.70719201     0.06204666     1.10427456    -0.41485331
O       0.10263144     0.78729245     6.41536164     0.88076411     0.73158736     1.45829349
O       1.76713202     3.05859101     1.62977301     1.39014380     0.37800733     0.57839687
