# total energy = -19959.43587078 eV

CRYSTAL
PRIMVEC
        7.60600008     0.00000000     0.00000000
        0.00000000     7.60600008     0.00000000
       -1.89786986    -1.89786986     4.85670466
PRIMCOORD
24 1
Ti      3.84417199     6.56070901     1.27758703    -0.82124099     1.46465928     0.18260856
Ti      3.63810698     2.92208698     1.13244402     0.92315416    -1.20687370     1.72569320
Ti      0.01555898     6.52350801     1.20085500     0.65077011    -1.86703168    -0.04728723
Ti      0.03814601     2.74936898     1.10409298    -1.56141456     2.13139466     1.22199282
Ti      5.64218224     2.84906825     3.50709280     1.75769753    -0.66415579     2.98337372
Ti      5.80269821    -1.08023577     3.70745979    -1.38269403     0.46530582    -0.95489007
Ti      1.94576422     3.01142120     3.66687279    -2.08761570     1.53130487    -1.16911138
Ti      1.81063923    -0.79066077     3.73376281     1.86148658    -2.33883211    -0.76325257
O       3.99482701     4.74585901     0.63637999    -0.24722554     0.37355263     1.84161966
O       3.80409602     0.96000802     0.94056499    -0.05334758     1.24138692    -0.99984480
O       0.07360300     4.64353598     0.70085600    -0.59525611     2.11657045     1.06491867
O       0.15112000     0.83566899     0.87208802    -0.51423882     0.08412730    -0.73044811
O       5.79392223     4.72397325     3.91735583    -0.99730326     1.25576402     2.05425460
O       5.82396521     1.00960024     4.01249983    -0.30503476    -2.63857323     0.19031981
O       1.82414621     4.89529020     4.05569181     0.55887242    -1.15532641     0.99641186
O       1.65221123     1.06175722     4.10523682     0.01845384    -1.03163264    -0.85744317
O       3.75635524     3.02775923     3.22673681    -1.39218372    -0.13122915    -0.52686731
O       3.81736620    -0.93568777     3.24259281    -0.05312904     0.41582235     0.57688840
O      -0.10514175     3.19433021     3.22766382     2.44315723    -1.50735890    -0.52060976
O       0.04400823    -1.10815775     3.21510179    -0.62113145     0.96537375    -0.42413242
O       5.66874800     6.45132702     1.67716702     1.88658415     0.56460778    -0.14544402
O       5.68382701     2.96557498     1.79711700    -0.54680134    -0.79410967    -5.57969291
O       1.96529901     6.38295298     1.70381797    -0.93888700     0.81743242    -0.11736910
O       1.79146301     2.86208802     1.62696800     2.01732763    -0.09217922    -0.00168844
