# total energy = -19518.61423741 eV

CRYSTAL
PRIMVEC
        7.60600008     0.00000000     0.00000000
        0.00000000     7.60600008     0.00000000
       -1.89786986    -1.89786986     4.85670466
PRIMCOORD
23 1
Ti      3.83017202     6.54756700     1.18707999    -0.21801960     0.35275394     0.59294623
Ti      3.83440200     2.84438302     1.14298598     0.40430124    -0.27323612     1.02067151
Ti      0.02313298     6.73970697     1.26301899    -0.10518438    -0.88077260    -0.70511656
Ti      0.00342399     2.87331002     1.12584698    -0.10950358     1.10619801     1.02614822
Ti      5.70140321     2.87051220     3.63240483    -1.80487755     0.31788797     0.60445604
Ti      5.67021922    -0.94484476     3.63081682    -0.34919656    -0.06870067     0.04541084
Ti      1.87899623     2.85588521     3.57527883     1.76689103    -0.71593577     0.00943955
Ti      1.88202222    -1.06407178     3.71237383     0.50423465     1.18091249    -0.14736052
O       4.00637900     4.71083103     0.63189299    -0.40997926     0.75739765     1.69455379
O       3.87947198     0.92785198     0.86115099    -0.37361974    -0.03505752    -0.66784018
O      -0.18819998     4.69251303     0.82290502     0.93280531     1.65005569     0.47633817
O      -0.14366099     1.00683899     0.73351502     0.72141453    -1.42989050     0.53567077
O       5.81960723     4.71668621     4.11691582     0.38983441     0.79894129     0.03682464
O       5.52689823     0.99976823     4.10523481     0.85663893    -0.94178155    -1.81250576
O       1.74025924     4.72037521     4.08524482    -0.41367188    -0.17853927    -0.11590717
O       1.90380824     0.93734225     4.06671579    -0.49874946    -0.28721187    -0.57589364
O       3.79082124     3.03029622     3.29024279     0.12937102    -0.30514764    -0.92106874
O       3.74913223    -1.07990979     3.33521783     0.99117966    -0.11375824    -0.84809643
O       0.02167521    -0.95812076     3.24766784    -0.56208604     0.32936384    -0.31261489
O       5.69284499     6.83407399     1.63611102     0.14356788    -0.77124202     0.55868061
O       5.73852298     2.92299600     1.75523802     0.55727628    -0.52421008    -0.38338968
O       1.96754499     6.54645398     1.59760898    -0.93772512     0.22175284     0.41974509
O       1.97930998     2.92745998     1.63840802    -1.61490252    -0.18977988    -0.53109164
