# total energy = -19514.83062449 eV

CRYSTAL
PRIMVEC
        5.17600016     0.00000000     0.00000000
        0.00000000     5.50899976     0.00000000
        0.00000000     0.00000000     9.26300011
PRIMCOORD
23 1
Ti      1.92678199     3.14299499     3.25467398    -1.99920057    -0.17035802     3.44315758
Ti      3.30127000     2.25987002     6.05869200     0.29588266     0.02499139    -4.04408812
Ti      4.46840699     1.88723102     1.59988799     1.23956760     0.97458241    -1.28696257
Ti      0.90266500     3.45655902     7.70142799    -1.59525569    -0.00447398     3.25670625
Ti      2.12241898     0.10743499     1.33975900    -0.98040931     0.96146773    -0.97258955
Ti      3.17104398     5.39277497     7.76329299     1.17112738    -0.57938314     1.20763166
Ti      0.65611502     0.65122600     5.91667299    -0.23120577    -1.53202350    -4.16558153
Ti      4.37290500     4.78786098     3.46281199     2.65746853     0.20383816     3.14475575
O       1.56136801     1.97687100     4.86477599     0.82210283    -0.14559520    -1.12435437
O       3.58833903     3.40062398     4.50204901     0.06721972    -0.05332419    -1.51933278
O       0.19219998     2.77290498     0.15873899     0.54971851    -0.64818023    -2.48303866
O       3.45540002     1.08385899     0.27106999    -0.48998971    -1.73988132    -1.85777108
O       1.79516000     4.85131197     8.86746599     0.35577859    -0.67284123     1.14781287
O       4.11719501     0.49345202     5.06442499    -1.25618902     1.48743284    -0.12640833
O       0.87779298     4.81841202     4.41744500     1.10629262    -0.62626491     0.44059237
O       0.27929901     3.43853403     2.32473302     0.57035240    -0.89550322     2.26732611
O       5.12952300     2.28947500     6.60493701    -1.91504859     1.13926626     0.97467575
O       2.53810200     1.74193599     2.31060801     1.06244964    -0.73748291     0.15492471
O       2.49585000     3.79466000     6.64798198    -0.23823619     1.65481532     2.15822645
O       0.29717600     0.36580600     2.15754503    -0.29954648     1.93690529    -1.12464902
O       5.00614299     5.02700798     7.36773300     0.07868607    -1.01453891     0.14477116
O       2.13526201     1.21990702     7.10047198    -0.23257976     0.10323112     0.87403502
O       3.05746402     4.26724200     2.14980898    -0.73898572     0.33332051    -0.50983940
