# total energy = -19070.99492628 eV

CRYSTAL
PRIMVEC
        5.17600016     0.00000000     0.00000000
        0.00000000     5.50899976     0.00000000
        0.00000000     0.00000000     9.26300011
PRIMCOORD
22 1
Ti      1.86390902     3.10517300     3.24261202    -0.25572279     3.51138697     1.06423450
Ti      3.38415900     2.24467401     5.99120200    -1.73755859     0.48115385    -2.36758631
Ti      4.53109100     2.26021901     1.33573202    -0.75606787    -0.69246107    -4.07564997
Ti      0.58758000     3.43049402     8.03410802     2.02941927    -1.26354315     0.65203869
Ti      1.87042700     0.62962398     1.34672001     0.81482377    -2.35846763    -2.46399192
Ti      3.37019999     5.04728398     8.02652999     0.21419740     1.67067671     0.77740727
Ti      0.73915499     0.53651202     5.90181401    -0.12519786    -0.00167327    -1.93126609
Ti      4.45531297     4.79997802     3.56501400    -1.07440167     1.55879589     0.95913316
O       3.11743202     3.56960001     4.52495598     2.20350667    -0.13016317     0.94939228
O       0.74285400     1.90863598     9.22836800    -0.17206883     0.93475215     0.35152701
O       4.31582402     3.92265099     9.19696799     0.82848662    -0.74360599    -0.18420547
O       3.34074398     0.92248099     0.25257699     1.01125561     0.60715827    -2.31250966
O       1.88388900     4.75185602     8.80999702    -4.32029412    -0.77130321     1.29220299
O       4.37719699     1.10628600     4.67306798     1.73052610    -3.31071384    -1.17350360
O       0.99049900     4.52548299     4.42817999    -2.29899774     2.33008779     1.27936058
O       0.00195002     3.22532698     2.72897099     0.80504175     0.20622029    -0.27995287
O       5.03093500     2.49336599     6.44378698     3.46101236     0.05499926     2.35585128
O       2.81190498     1.93963999     2.24286502    -0.23565326     0.00895361     1.05379145
O       2.34607098     2.92122702     7.28338998    -0.09630225     1.49025771    -0.02457538
O       0.04406898     0.67685803     1.86579701     0.69590404    -2.11197203     2.69758058
O       2.68568001     0.53957902     6.39503399    -1.83975483    -1.47772923     0.83448321
O       2.79570898     4.65497499     2.26909400    -0.88215354     0.00719061     0.54623801
