# total energy = -4979.66947675 eV

CRYSTAL
PRIMVEC
        2.90521451     0.00000000     0.00000000
        2.14213466     4.01650183     0.00000000
       -0.00001378    -0.00006206     4.71053111
PRIMCOORD
6 1
Ti      2.52366747     2.00821979     2.35526566     0.00000000     0.00000000     0.00000000
Ti      0.00000000     0.00000000     0.00000000     0.00000000     0.00000000     0.00000000
O       1.87007495     0.78274492     0.91801319    -8.31670703     3.52173824     4.91105131
O       3.17726001     3.23369475     3.79251818     8.31670703    -3.52173824    -4.91105131
O       0.65358667     1.22544993     3.27327976     8.31403334    -3.52034187     4.90798604
O       1.48853389     2.79098982     1.43725155    -8.31403334     3.52034187    -4.90798604
