# total energy = -39034.81460167 eV

CRYSTAL
PRIMVEC
        5.93200024     0.00000000     0.00000000
        0.00000000     9.29399984     0.00000000
        0.00000000     0.00000000     9.29399984
PRIMCOORD
46 1
Ti      4.47253298     6.86517601     6.95734800    -0.40417911     1.33092819    -0.48557281
Ti      4.42936001     6.98280502     2.33086899     1.12013570    -0.84832758    -0.98399060
Ti      4.46861803     2.37892601     7.03748702     0.54124107    -0.59722506    -0.30860500
Ti      4.40037602     2.44680998     2.28815603     0.51831094    -0.43460144    -0.45130591
Ti      1.49640298     7.03135598     7.05232299    -0.02416529     0.36152012    -0.63832390
Ti      1.56201001     7.01938498     2.28950702    -1.34137561    -0.36403158    -0.51121160
Ti      1.52408599     2.30637602     6.99827700    -0.44098498    -0.68865970    -0.52192565
Ti      1.46676498     2.25787502     2.48764902    -0.57622171    -0.23327628    -1.12544760
Ti      2.89007001     4.72160798     4.60239800     1.38507538     0.38118984     1.41665188
Ti      2.93974102     4.68829099     9.10380703     0.47460756     0.75125888     2.52577761
Ti      2.97987801     0.01104001     4.69889300    -0.38349972    -0.03216811    -0.17824436
Ti      2.94983201     0.01553998     0.05737102     0.63508868    -0.10938223    -1.12310173
Ti      0.02824600     4.59880500     4.49910700    -0.43903120     0.91235475     1.17757314
Ti      0.02855800     4.59724599     9.15857899    -0.65964427     0.67155183     2.13077477
Ti      5.90521699     9.19355702     4.68166600     0.24155112    -0.34522112     0.38054166
Ti      5.86506699     9.26784499     0.09550602    -0.65569994     0.13342231    -1.39809751
O       4.56736800     5.71571899     5.50678399    -0.36130492    -1.50002251    -0.46328596
O       4.52480802     5.48394200     0.95624700    -0.38036066    -0.27650039    -0.37994440
O       4.35370099     0.67300800     5.69017598     0.53074737     1.74618876    -0.59219727
O       4.42132699     0.92890901     0.84105998    -0.00317377     0.83337455     1.68353763
O       1.55304701     5.58945598     5.44956898    -0.83930557    -0.02580386     0.56863284
O       1.63538001     5.65861701     0.76789398    -1.15636282    -1.17285465     0.77700720
O       1.30933501     0.94679102     5.49016603     1.29151393     0.27115661    -0.16771415
O       1.70435901     1.07636801     1.02310002    -1.46202647    -0.79390476    -0.50298561
O       4.31877498     8.32459601     8.48400098     0.90254599     0.35268504    -0.67797084
O       4.48030401     8.45092301     3.65956798    -0.64909195     0.02759386    -0.31395470
O       4.39922802     3.65173599     8.54410900     1.25062027    -0.50199625    -0.65530836
O       4.48252502     3.60801802     3.77469102    -0.08093013     0.32033052    -0.15997461
O       1.40979498     8.28888798     8.38186601     0.50244542     1.26621170     0.62031024
O       1.52088801     8.42341097     3.56901501    -0.91200740     0.35311390     0.65676026
O       1.57506100     3.78356902     8.23080400    -1.59052614    -0.13244554     1.52195814
O       1.60336600     3.61466798     3.88072703    -0.94821908     0.08648192    -0.92930938
O       2.99651100     5.94898001     7.91965498     0.23650635     2.18362844    -2.61392328
O       2.94963801     6.07453699     3.23401602     0.03827320    -0.26395880    -0.13780784
O       3.06273198     1.49557598     7.90254302    -1.43159154    -1.51601452     0.61693618
O       2.93254897     1.44376800     3.29964701     1.17636961     0.21201350    -0.23766387
O       5.86428598     6.13673098     7.94893901     0.29202369    -1.01991509    -0.29302308
O       5.87208902     6.03850198     3.14780299     1.00234622    -0.60643501     0.67256870
O       5.82050101     1.36911098     7.95953499     1.26625309     0.44863016    -0.35435548
O       2.84733800     7.85371901     6.05656899     0.28763379     0.06520114    -0.13902603
O       2.98593899     7.83422100     1.37526902    -0.23698407     0.46686520     0.10075720
O       2.95629300     3.29884399     6.30537501     0.62344647     0.50631776    -2.35169869
O       5.90000402     7.98867202     5.97364501     0.52979040    -1.92363865     1.56464952
O       5.86889501     7.84371598     1.26770501     0.58939631    -0.18212570     1.39731770
O       0.07481799     3.23679203     6.09390297    -0.85740743     0.24705534    -0.13344493
O       0.02680198     3.20192999     1.38006903     0.39817172    -0.36056573     1.01766178
