# total energy = -4987.84180622 eV

CRYSTAL
PRIMVEC
        3.95603283     0.00000000     0.00000000
        1.52154405     3.65172555     0.00000000
       -2.73882517    -1.82588726     5.15701713
PRIMCOORD
6 1
Ti      1.14105110     2.73893474     1.28925401     0.00047051    -0.00047051     0.00000000
Ti      1.59770073    -0.91309642     3.86776242    -0.00047051     0.00047051     0.00000000
O       0.38042714     0.91292660     0.84003582    -0.00047257    -0.00056976    -1.74408097
O       2.35832451     0.91291164     4.31698066     0.00047257     0.00056976     1.74408097
O      -0.38039297    -0.91290382     3.41854428    -0.00056976    -0.00047257    -1.74408097
O       3.11914456     2.73874203     1.73847226     0.00056976     0.00047257     1.74408097
