# total energy = -19959.09842484 eV

CRYSTAL
PRIMVEC
        7.60600008     0.00000000     0.00000000
        0.00000000     7.60600008     0.00000000
       -1.89786986    -1.89786986     4.85670466
PRIMCOORD
24 1
Ti      3.87373501     6.57666699     1.25426999     1.67806247    -0.48944489    -0.16075803
Ti      3.58181099     2.62254699     1.32305399    -1.36122994     1.81794930     1.04960106
Ti      0.28984398     6.64898700     1.07909100    -1.43380398    -0.04814470     1.00979806
Ti     -0.15459802     2.91097198     1.06893402     2.26119325     0.03759237     0.67986009
Ti      5.75847625     3.04374123     3.52693679     0.78500051    -1.32510027     0.11427221
Ti      5.75658825    -0.86801278     3.55613383    -0.53447392     1.70713831    -0.45941671
Ti      1.77585720     2.75393525     3.89277782     0.06763855     0.27578511    -1.90744944
Ti      1.75299923    -0.98370278     3.62538180     0.49960667    -0.26890947     1.04504018
O       3.35722599     4.58172400     0.91976102     1.49153041     1.29590101    -0.35127864
O       3.91381500     0.91697099     0.75267500    -0.09654162     0.19615982     0.88193653
O       0.33023200     4.71946900     0.73527099    -0.81400359     2.64750962    -0.52896636
O       0.15466898     1.08652599     0.79787801    -0.61718094    -0.64528543    -0.44223376
O       6.01476822     4.97569022     4.06367180    -1.31949629    -2.82468363     0.52720901
O       5.98889521     1.12382823     3.90809983    -1.14944295    -1.24652244     0.29797374
O       1.84484424     4.78835925     4.25363284     0.20730890    -1.43159668    -1.37004574
O       1.58534625     0.87906422     4.03864479     0.24570936    -0.62246199     0.49014603
O       3.69030921     2.65978424     3.26484879     1.32103509     0.47912165     0.59287733
O       3.94083024    -1.05133978     3.19480880    -0.24761815     0.32615716     1.22275207
O      -0.01546177     3.13662221     3.23504579    -1.43640773    -0.41314481    -0.26904651
O      -0.02301577     6.40476820     3.06639780     1.98606840     0.96096096    -0.19339922
O       5.76094798     6.59083999     1.52350898     0.42172124     0.09049104    -0.11114446
O       5.66243100     3.10307798     1.52737102    -0.57331919    -0.35715644     0.66829681
O       2.06918502     6.72344398     1.77946497    -2.13245473     0.55527004    -1.12605233
O       1.77162902     2.80312301     1.90749698     0.75109819    -0.71758539    -1.65997218
