# total energy = -19075.55086434 eV

CRYSTAL
PRIMVEC
        7.60600008     0.00000000     0.00000000
        0.00000000     7.60600008     0.00000000
       -1.89786986    -1.89786986     4.85670466
PRIMCOORD
22 1
Ti      3.95301602     6.70676098     1.13825100     1.13688619    -1.07081061     0.57810453
Ti      3.61009901     2.72463799     1.16479898     1.00100694     1.39794273     0.44696408
Ti      0.10964600     6.78585901     1.15149800    -1.99309471    -1.45771730    -1.20831660
Ti     -0.08985498     2.89705700     1.15379601    -0.97878951     1.22143541    -0.47018655
Ti      5.61711925     2.86492023     3.51447482     0.19298990    -0.51067887     0.92499661
Ti     -1.30424877    -0.93526475     3.82947282    -1.06953277     0.27606768    -3.56106507
Ti      1.83394822     2.83791621     3.68246479     0.01617533    -1.05736580    -0.22189786
Ti      1.45482325    -0.99555476     3.77111484     1.31774331     0.07976748    -0.29279862
O       3.74868598     4.65883597     0.70904798    -0.34017944     0.82731111     0.92057997
O       4.01886398     0.92764301     0.79986099    -0.75699322    -1.11946310     1.05242465
O      -0.14408200     4.75873601     0.69144501     0.57301992     0.31966023     0.15546695
O      -0.22503501     1.02633801     0.57587698    -0.04268264    -0.98993319     3.18939475
O       5.84887221     4.80052620     4.00276980     0.21935478     0.10910018    -0.22243419
O       5.68669325     0.93242921     3.98830183     0.73537357     0.46857267    -0.26720714
O       2.22702521     4.74783824     4.16629282    -0.92619552     0.17772474    -1.07101784
O       1.91191523     0.79216125     4.05194783    -0.87225967     0.76828190    -0.31456688
O       3.69478620     2.61826822     3.14335282     0.14336245     0.66070871     0.25949897
O      -0.08708077     2.84046721     3.21599383     1.04252564     0.06743878     0.00809229
O       5.89251002     6.64617601     1.82611401    -1.03888110     0.23295309     0.56065548
O       5.63948000     2.90644000     1.56507902    -0.24328224    -0.04880830     0.45394823
O       1.78510902     6.74963302     1.91784599     1.77191368    -0.38377791    -0.46818700
O       1.78663998     2.79664202     1.64871300     0.11153912     0.03159013    -0.45244876
