# total energy = -19072.37480611 eV

CRYSTAL
PRIMVEC
        5.17600016     0.00000000     0.00000000
        0.00000000     5.50899976     0.00000000
        0.00000000     0.00000000     9.26300011
PRIMCOORD
22 1
Ti      1.77109598     3.36722199     3.22430403     0.03153382     0.88363089     0.52963151
Ti      3.81095299     2.38248600     5.98950101    -2.64770811    -0.27106122    -0.67419364
Ti      4.24847098     2.17380802     1.20008002     1.16498553     0.76908589    -0.92779526
Ti      0.92608802     3.17754000     8.24644997    -0.94472007     1.05816335    -0.53794749
Ti      1.74207802     0.52135802     1.34138802    -0.39707978    -1.04673197    -1.72197538
Ti      3.14480700     5.09011702     7.92234902     2.30423122    -1.01676009     0.38045065
Ti      0.69949898     0.19678102     6.06593802     0.59452772     1.57418678    -2.17597812
Ti      4.32910002     5.05419700     3.44365498     1.07419367    -0.36582852     0.72777622
O       3.39199998     3.42786602     4.38119302    -0.25167407    -0.04993367     1.28081326
O       1.02530003     2.09304202     0.40333303    -0.82590806     0.03609753    -0.38840076
O       4.40688601     3.75449301     8.84572098     0.12080847    -0.29992109     1.08772102
O       3.24751898     0.71947399     0.18360202     2.29363339     1.81351183    -0.83313723
O       1.57211798     5.02625702     8.73796197    -3.46662533    -1.70448262     0.22719202
O       4.41280200     0.94171600     4.72351599     0.14618424    -0.40861195     0.28033622
O       0.93545298     4.78803799     4.33071899    -0.14645009    -0.92053755     1.27404971
O       5.11354698     3.55616701     2.34283401     0.97009738    -1.24837286     0.37041151
O       0.29172801     2.14762798     6.59339100     0.84175763    -0.42461476     1.28394537
O       2.67093798     1.80904302     2.25944202    -0.03459678     1.86648866     1.85579595
O       2.64880001     3.05079099     7.54025801     0.28414506     0.96120496    -2.43361381
O       5.06709702     0.59735798     1.88300099     0.33070312    -0.05829027     1.45051101
O       2.53563402     0.75916499     6.42103400    -0.27831765    -1.14298125     0.48348893
O       2.72911101     4.75753198     2.46416699    -1.16372157    -0.00424232    -1.53908169
