# total energy = -19072.71896986 eV

CRYSTAL
PRIMVEC
        5.17600016     0.00000000     0.00000000
        0.00000000     5.50899976     0.00000000
        0.00000000     0.00000000     9.26300011
PRIMCOORD
22 1
Ti      1.72637998     3.29549599     3.40099298     0.47399538    -0.23551314    -0.65760744
Ti      3.43090699     2.21259602     6.06126602     0.50916346     2.06763848    -1.32882065
Ti      4.51613698     2.11378498     1.21443999    -0.63007837     1.56485521    -0.35627121
Ti      0.85252402     3.08461901     8.01177198    -0.57487934     1.57707104     1.00798671
Ti      1.86603498     0.51356499     1.33855100     0.38266205    -0.37077867    -1.50039737
Ti      3.27481500     5.13124499     8.01171599     0.57314333    -0.91815979     3.07528940
Ti      1.53634301     0.16800399     5.79610498    -1.57334011     0.43797833    -0.97795879
Ti      4.25774899     5.03968299     3.46150598    -0.26514434    -1.73861506     0.00545948
O       3.43946199     3.62639200     4.44512002    -1.33081300    -1.15726219     1.18554048
O       0.91280297     1.92411801     0.15165998     0.40542404    -0.76995981     0.11617894
O       4.34091999     3.65833499     8.83538202     0.51695828    -0.19691804    -1.27448474
O       3.58589603     0.80166099     0.25774599    -0.25972317    -0.19265129    -0.20319847
O       1.80308798     4.73044498     9.01133198    -1.25365134    -0.51720382     0.76861795
O       2.95431800     0.94080899     4.77947600    -0.14343830    -0.66364825    -0.76146539
O       0.62885498     4.44500598     4.43425902     0.85464066     1.22745693     1.61274280
O       5.09065398     3.57847998     2.27762799     0.19826427    -0.67011741     0.55925268
O       0.01108102     2.20878103     6.57226100     0.39960537    -0.64706874    -0.48430603
O       2.56771698     2.10155500     2.11501098     0.55220143    -1.09027464     0.66273191
O       2.13424101     4.21904301     6.72378800     0.20248345    -2.83790348    -0.56710972
O       0.12034099     0.69905902     2.21837601     0.24839797     0.20304678     1.10035106
O       2.43428901     1.18476600     7.31763097    -0.10159564     1.76370852    -1.32823059
O       2.48927503     4.52038299     2.38133599     0.81572418     3.16431928    -0.65430100
