# total energy = -19517.83707191 eV

CRYSTAL
PRIMVEC
        5.17600016     0.00000000     0.00000000
        0.00000000     5.50899976     0.00000000
        0.00000000     0.00000000     9.26300011
PRIMCOORD
23 1
Ti      1.84835300     3.19842001     3.54385099    -0.37007958     0.49976942     0.55021011
Ti      3.42183499     2.18665798     5.80715299    -0.03858507     0.07630060    -1.41401239
Ti      4.39728499     2.07315702     1.40184398    -0.43374166     0.89420610    -0.56455584
Ti      0.87068401     3.39336700     7.73030498    -0.26103803     0.68459349     1.39873000
Ti      1.93505002     0.30049902     1.42200003     2.51692709    -0.18811380    -1.64848731
Ti      3.25269899     5.10390098     7.93836398    -0.89935165     1.15313660     0.94043892
Ti      0.70115298     0.52418198     5.92253501     0.22609493    -0.31029756    -2.19514313
Ti      4.46654598     4.93940797     3.31320702     0.84640233     0.09709209     2.66810390
O       1.64204299     1.88160899     4.78401100    -0.08035060     0.16704541     0.01253310
O       3.53016398     3.53686998     4.50406401    -0.29286573     0.04797655    -0.10935009
O       0.00564299     3.00252700     0.03697600    -0.31457305    -0.79493191    -0.44199671
O       3.47779702     1.00319502     0.18211598    -1.20885885    -1.59811990    -1.02450220
O       1.90289599     4.52290701     9.09344103     0.28213522     0.84078216     0.81997704
O       4.27040998     0.81670402     4.76051601    -0.33851337     0.13718820    -0.26273059
O       0.83987700     4.75180199     4.48016801     1.41120577    -1.03473725     0.47431292
O       0.07557598     3.44802397     2.49579698     1.30795974    -0.98753435     0.50111745
O       5.06426798     2.03280303     6.84141198    -0.25680882     0.63393117    -0.09964211
O       2.62050500     2.01175500     2.22650598    -0.35616683    -0.30721069    -0.03479115
O       2.64920700     3.53794802     6.91948299    -0.46244367    -0.11154735     1.06394757
O       0.20247602     0.55826898     1.97945000    -0.07422752     0.60263338    -0.02166927
O       5.00492001     4.93437402     7.31628401     0.92715634    -0.74404025    -0.34533913
O       2.43434002     0.80001001     6.81943298    -0.31849527    -0.24432431     0.60891099
O       2.88993602     4.60255400     2.42386602    -1.81178199     0.48620196    -0.87606182
