# total energy = -19919.05589682 eV

CRYSTAL
PRIMVEC
        6.77764796     0.00000000     0.00000000
        0.00002269     3.47315076     0.00000000
        0.00000000     0.00000000    10.23994905
PRIMCOORD
24 1
Ti      2.45658495     2.05818599     3.79894806    -0.61389379     1.21835008    -0.75954529
Ti      4.32108584     1.41496492     6.44100109     0.61389379    -1.21835008     0.75954529
Ti      5.84529292     1.41496616     1.32098560    -0.61362742    -1.21786388     0.76055522
Ti      0.93237793     2.05818491     8.91896371     0.61362742     1.21786388    -0.76055522
Ti      2.45657366     0.32161066     1.32102667    -0.61389379     1.21835008     0.75954529
Ti      4.32109719     3.15154036     8.91892264     0.61389379    -1.21835008    -0.75954529
Ti      0.93236659     0.32160933     6.44096003     0.61362742     1.21786388     0.76055522
Ti      5.84530421     3.15154169     3.79898913    -0.61362742    -1.21786388    -0.76055522
O       2.14517644     1.22295548     5.22536763     4.60834289    -1.34154248     2.71910921
O       4.63249441     2.25019544     5.01458153    -4.60834289     1.34154248    -2.71910921
O       1.24370332     1.22296945     0.10542601    -4.60864371    -1.34185975     2.71979621
O       5.53396758     2.25018146    10.13452284     4.60864371     1.34185975    -2.71979621
O       4.63248306     0.51362006     0.10539280    -4.60834289     1.34154248     2.71910921
O       2.14518773     2.95953085    10.13455610     4.60834289    -1.34154248    -2.71910921
O       5.53395629     0.51360608     5.22540084     4.60864371     1.34185975     2.71979621
O       1.24371446     2.95954488     5.01454832    -4.60864371    -1.34185975    -2.71979621
O       0.24626152     2.11256721     2.76606570     1.46696016    -0.44294416     1.04046079
O       6.53140927     1.36058376     7.47388346    -1.46696016     0.44294416    -1.04046079
O       3.63509398     1.36055134     2.35394143     1.46847146     0.44348769    -1.04164452
O       3.14257681     2.11259963     7.88600758    -1.46847146    -0.44348769     1.04164452
O       0.24625023     0.37599178     2.35390873     1.46696016    -0.44294416    -1.04046079
O       6.53142062     3.09715914     7.88604027    -1.46696016     0.44294416     1.04046079
O       3.14256552     0.37602420     7.47391611    -1.46847146    -0.44348769    -1.04164452
O       3.63510533     3.09712672     2.76603300     1.46847146     0.44348769     1.04164452
