# total energy = -19071.54862173 eV

CRYSTAL
PRIMVEC
        5.17600016     0.00000000     0.00000000
        0.00000000     5.50899976     0.00000000
        0.00000000     0.00000000     9.26300011
PRIMCOORD
22 1
Ti      1.95045098     3.33034400     3.35946701     0.76183949     0.33862238    -0.11494712
Ti      3.40905700     2.10556098     5.97385398     1.48749146     0.30656097    -2.66011882
Ti      4.37128799     2.32380903     1.42129199     1.86255179    -0.74202759    -3.40625504
Ti      0.74777302     3.11069999     7.86951099    -2.99545328    -2.12540630     4.48054024
Ti      1.85298002     0.47680601     1.28613498    -0.16029703     0.01722717    -2.99847381
Ti      3.34898898     5.19577102     7.99457499    -0.78646372    -0.83338843     2.50658817
Ti      0.70096501     0.29635799     6.20252999    -1.37327273    -1.83458872    -2.06672368
Ti      4.67394002     4.97651701     3.23203001    -1.79927126     0.61480910     1.16802972
O       3.55900498     3.19218302     4.25788499     0.02378400     0.58452021     1.64768102
O       0.89738402     1.93996200     0.04829399     0.08701208    -0.13124998     1.06924635
O       4.35151401     3.67503599     8.75677798    -1.06838632     0.62903322    -0.14059723
O       3.46388400     0.78952500     0.29261602     1.38164656     0.63218591    -0.18014261
O       1.76381397     4.84327203     9.04268197    -0.99456349    -1.17312050    -0.15414849
O       4.43820198     0.84191100     4.89320900    -0.41188959    -0.15661161     0.49643547
O       1.07055701     4.82520502     4.05219098     0.42229614     0.03279160     3.78883893
O       0.34716800     3.64399101     2.19162102    -1.06820506    -0.47546297    -0.83102713
O       4.50927403     1.01143002     7.34136500     1.18420736     1.06177318    -0.90316563
O       2.70638200     2.05074399     2.06756002    -0.69482289     0.81206755     1.21682979
O       1.58310100     4.03488901     6.68613699     3.17165362     2.01852319    -2.99169638
O       0.21591601     0.96056302     2.31919598    -0.61312991     0.13675908    -0.13982667
O       2.03781597     1.25638199     7.01050899     0.10017202     0.50660238     0.24921352
O       2.78197302     4.80521302     2.43217601     1.48310079    -0.21962011    -0.03628085
