# total energy = -39037.18738575 eV

CRYSTAL
PRIMVEC
        7.60600008     0.00000000     0.00000000
        0.00000000     7.60600008     0.00000000
       -3.79573973    -3.79573973     9.71340985
PRIMCOORD
46 1
Ti      1.87649745     4.80676446     6.19658765    -0.31756144     0.59672910     0.02811708
Ti      3.77699601     6.65596801     1.29483402    -0.23916462     1.12124308    -1.03421146
Ti      1.85237544     0.82317247     6.01332865    -0.09674191    -0.31745628     1.59052383
Ti      3.71414102     2.80973202     1.16831600     0.26108122    -1.39423494     0.06316149
Ti     -1.94047054     4.64367346     6.11411860     0.90374875     0.88348357    -0.78500591
Ti     -0.03935401     6.71280403     1.26143500     0.32483072    -0.26903056    -0.05834607
Ti     -1.87314453     1.04909443     6.07049662     0.29948324    -2.09316131    -0.83217821
Ti      0.07518799     2.93937600     1.13661198    -0.64530085     0.18724503    -0.47773454
Ti      3.88678843     1.03813945     8.36646563    -0.90306407    -0.80287431     1.17016270
Ti      5.64377401     2.86225698     3.37198200     0.39994682    -0.55067959     1.47405076
Ti      3.82562147    -2.86203357     8.51673360     0.33332077     0.89217853     0.46450775
Ti      5.65782801    -0.95673199     3.69757698     0.76286073     0.74864021     0.50398911
Ti      0.07256946     0.96073246     8.45914160     0.47252471     0.65326305    -0.25869215
Ti      1.90057999     2.77217498     3.53582099    -0.59703737    -0.37601806     0.09655036
Ti      0.00362545    -2.85316254     8.53693764    -0.09263225    -0.66410179     1.35950832
Ti      1.92014500    -1.12436100     3.67086501    -0.83143131     0.30539369     0.94517027
O       1.64094844    -0.98829154     5.80393363     0.64834350    -0.88211728    -1.55520560
O       3.63145898     0.91222802     1.03379602     0.24043963     0.95554287    -1.88252644
O      -1.93993057     2.75734844     5.65778964    -0.09469428     3.25913852    -0.15729526
O      -0.06926300     4.80439300     0.73430498    -0.12231205    -0.31703848    -0.15527463
O      -1.66799855    -0.93160856     5.72767263    -0.84639719    -0.53984008    -1.10798672
O       0.06216002     1.00264499     0.91093800    -0.36932059    -0.72085789    -1.00988624
O       3.81092643     2.87503746     8.90271364    -0.26578814     0.16224695    -0.31936481
O       5.50736698     4.77385900     4.06530701     0.34407261    -0.66554984    -0.09553554
O       4.10776243    -1.00266553     8.87866862    -0.58608010     0.68656527     0.01022091
O       5.68929500     1.05976899     4.00183400     0.06268815    -0.86113090    -0.23861312
O       0.15618545     2.81904543     9.06716362     0.15741122    -0.38854860    -0.55928379
O       1.91286802     4.47563100     4.24902502     0.37516497     1.42116083    -0.52755380
O      -0.04067653    -0.86853957     9.03520062    -0.05083716    -0.27214803    -1.47172005
O       1.90577101     0.95610502     4.20550702    -0.02478647     0.53146265    -1.72043941
O       1.90771145     0.83405045     8.09396464     0.38165932     0.26010086     0.24318788
O       3.72933698     2.72292599     3.05728399     0.78459633     0.61116867     1.81194166
O       1.91688844    -2.66084853     8.15466063     0.53408800    -0.63466702     0.28915511
O       3.76706700    -0.76510500     3.21577602    -0.73543219    -1.13909708     1.38448917
O      -1.85826857     1.00305945     7.99018764    -0.68193240     0.18095996     0.68914872
O       0.05261398     2.86060701     3.13471998    -1.52605776     0.07772165    -0.03442246
O      -1.78965857    -3.07645153     8.08278064    -1.60442682     0.40805916     0.22265479
O       0.03046902    -0.94172500     3.23590301     0.21144349    -0.39333599    -0.07534595
O       3.82848347     4.83074243     6.47899362    -0.34733251    -0.47049380     0.59041549
O       5.65919498     6.78839001     1.68219299     0.85117327    -0.80131185     0.19528847
O       3.71129447     0.95147445     6.40655560     1.06047735     0.35452055     0.43938807
O       5.60135500     2.93599000     1.50880901     1.16039354     0.33633513     0.05293389
O       0.01456645     4.65422245     6.60208263     0.45502269    -0.54463339    -0.65239402
O       1.89870099     6.55259598     1.43792699    -0.32965746    -0.61818367     1.62445880
O       0.03119743     1.09376143     6.47751060     0.14638684     0.55467329    -0.21566704
O       1.87642602     2.98019800     1.54792299     0.13683108     0.52867737    -0.02434167
