# total energy = -4985.91475488 eV

CRYSTAL
PRIMVEC
        3.91248435     0.00000000     0.00000000
        0.00000000     3.67816558     0.00000000
        0.00000000    -0.00007244     5.23116876
PRIMCOORD
6 1
Ti      1.95624201     1.83904668     2.61558449     0.00000000     0.00000000     0.00000000
Ti      0.00000000     0.00000000     0.00000000     0.00000000     0.00000000     0.00000000
O       1.95624201     0.71680622     1.01947780    -0.00000000     0.14673548     1.01892548
O       1.95624201     2.96128714     4.21169124    -0.00000000    -0.14673548    -1.01892548
O       0.00000000     1.12221153     3.63506331     0.00000000    -0.14658842     1.01862723
O       0.00000000     2.55588183     1.59610567     0.00000000     0.14658842    -1.01862723
