# total energy = -4985.44559068 eV

CRYSTAL
PRIMVEC
        2.72225781     0.00000000     0.00000000
        0.63622714     4.21765279     0.00000000
       -0.00000400    -0.00005537     4.27748459
PRIMCOORD
6 1
Ti      1.67924022     2.10879863     2.13874225     0.00000000     0.00000000     0.00000000
Ti      0.00000000     0.00000000     0.00000000     0.00000000     0.00000000     0.00000000
O       1.48511930     0.82194757     0.83361871    -3.16601236     1.81775878     1.95128290
O       1.87336115     3.39564970     3.44386573     3.16601236    -1.81775878    -1.95128290
O       0.19411919     1.28682863     2.97236187     3.16500680    -1.81526044     1.94869663
O       0.44210356     2.93076873     1.30512257    -3.16500680     1.81526044    -1.94869663
