# total energy = -19074.01035836 eV

CRYSTAL
PRIMVEC
        7.60600008     0.00000000     0.00000000
        0.00000000     7.60600008     0.00000000
       -1.89786986    -1.89786986     4.85670466
PRIMCOORD
22 1
Ti      3.53919598     6.69252198     1.22094998     0.58122611     1.63368367     2.39928751
Ti      4.09182202     2.93136902     1.11938298     0.57945822    -1.09376415     1.33778481
Ti     -0.12144602     6.69860699     1.27578200    -0.11515204    -1.02726305     1.58335199
Ti      0.13132999     2.87373500     1.19777201    -1.40167186     0.78417698    -0.75289668
Ti      5.89335723     2.99337425     3.59916081    -1.00638234    -2.14791323    -0.21315944
Ti      5.74264221    -1.07412578     3.86107582    -0.94786813     1.44847033    -1.12231369
Ti      2.02348025     2.90474124     3.86383579    -0.21620003     0.83764387    -2.56381375
Ti      1.58496625    -0.86726875     3.84693181     1.39806409     0.51960549    -0.19341876
O       3.74741002     4.91406202     0.81617399     0.11640057    -2.69802873     0.54994811
O       3.31897802     1.22633399     0.98026799     0.12517703    -0.85700068    -0.24459196
O       0.13655101     4.75952502     1.19011699    -0.53227075     0.37795513    -1.43002188
O       0.49985702     1.00127300     0.86158603    -0.76495464    -1.14647846     0.72142225
O       5.23225720     4.71971925     4.18343382     0.62220308     0.37959216     0.25716826
O       5.63453225     1.14030220     4.17293780    -0.06009159    -0.04935054    -0.71684594
O       2.07655821     5.00127425     4.32508579     0.07707450    -0.72874398    -1.66001897
O       2.20170820     0.99029622     4.10819381    -0.06917941     0.31255473    -1.93256141
O       3.68735724     3.11425722     2.85614382    -1.14645635     0.19807709     2.48546089
O       0.13219022     2.96873322     3.13264280     1.58210398     0.18872033     2.22342965
O       5.43171797     6.56702601     1.87688201     0.30881223     0.56465046     0.23814440
O       5.84831800     2.53888598     1.56991999     0.16718784     0.63399982     0.61315331
O       1.78848602     6.26014300     1.91575600     1.13719344     1.93018057    -0.08760677
O      -0.13304278    -0.69525979     3.43785684    -0.43467395    -0.06076753    -1.49190142
