# total energy = -19961.68857491 eV

CRYSTAL
PRIMVEC
        7.60600008     0.00000000     0.00000000
        0.00000000     7.60600008     0.00000000
       -1.89786986    -1.89786986     4.85670466
PRIMCOORD
24 1
Ti      3.86097099     6.67577400     1.17783299    -0.62308883    -0.93257417     0.29475960
Ti      3.82661997     2.77870699     1.17170400    -0.52924558     1.05509628     1.00208449
Ti     -0.03411600     6.62171902     1.22099501     0.48637808     0.83459454    -0.70036542
Ti     -0.05079800     2.88002797     1.27131199     0.74674197    -0.73029513    -0.11343249
Ti      5.69341925     2.83180320     3.68943882     0.09362444     0.26606582    -0.37085220
Ti      5.70081424    -0.93108578     3.63291083    -0.18840048    -0.20555309     0.93003495
Ti      1.96133023     2.83484920     3.67367082    -0.46390277    -0.10156504    -1.22121480
Ti      1.93258024    -0.95545477     3.64863983     0.10547132    -0.05215356    -1.82448171
O       3.86361100     4.76080801     0.69081899    -0.09386973    -0.93764542     1.99989528
O       3.82992098     0.93464799     0.69411201    -0.01667952    -0.16076317     0.66388017
O      -0.17752098     4.74769399     0.80714300     0.55061917     0.55390299     0.11732077
O      -0.05174099     1.00345702     0.74761098     0.25357026    -0.74169823     0.23243681
O       5.52649521     4.77717123     4.00142283     0.33183158    -0.05778814     0.60898375
O       5.65015224     0.97834925     4.07820179     0.48594485     0.00157814     0.13607466
O       2.00519124     4.66135221     4.06288682    -0.00169847     2.31709343    -0.65069426
O       1.86223221     0.89678922     4.07288679    -0.16653761    -0.00938710    -0.40046901
O       3.78715822     2.74316422     3.13159180     0.16224515     0.01745960     0.44009203
O       3.87610223    -0.74376979     3.14741679    -1.61110218    -0.64915725     0.22470190
O      -0.06021476     2.92983922     3.29690381     0.51731335    -0.17645025    -0.11403747
O      -0.04508378    -1.03249879     3.16328179     1.11586484     0.09206275     0.41901824
O       5.70619301     6.70660699     1.58037701    -0.05812598     0.04434049    -0.01220297
O       5.72584898     2.80223802     1.69435401    -1.21237715    -0.01551096    -0.63642694
O       1.91599900     6.73082002     1.61085598    -0.13129652    -0.45887575     0.10624034
O       1.86606203     2.84592102     1.71023901     0.24671929     0.04722296    -1.13134649
