# total energy = -4920.89341778 eV

CRYSTAL
PRIMVEC
        5.16467517     0.00000000     0.00000000
       -0.00000675     2.21343236     0.00000000
       -2.58236721    -1.10679625     5.60482490
PRIMCOORD
6 1
Ti     -0.00022068     1.66014300     1.40120617    -0.03990225    -0.03193208    70.40300286
Ti      2.58252164    -0.55350684     4.20361863     0.03990225     0.03193208   -70.40300286
O       0.00005487     0.55334453     0.91298017     0.03907513     0.03297724   -62.57292896
O       2.58224593     0.55329158     4.69184468    -0.03907513    -0.03297724    62.57292896
O      -0.00002159    -0.55338459     3.71539262    -0.00103667    -0.00004525    -0.48909702
O       2.58232234     1.66002064     1.88943223     0.00103667     0.00004525     0.48909702
