# total energy = -19960.13064207 eV

CRYSTAL
PRIMVEC
        7.60600008     0.00000000     0.00000000
        0.00000000     7.60600008     0.00000000
       -1.89786986    -1.89786986     4.85670466
PRIMCOORD
24 1
Ti      3.84930501     6.50813599     1.18606000     0.60447815     0.57576946     0.64475886
Ti      3.84794598     2.64065099     1.14332899    -0.46826954     0.45322832     1.64135199
Ti     -0.01996898     6.72566801     1.15411902    -0.56971708    -0.23951532     0.32252573
Ti     -0.04251098     2.85061202     1.22227599     0.51032534     0.92030615     0.55938947
Ti      5.67025822     2.86902320     3.62983980    -1.91388851     1.38725002     0.43931710
Ti      5.70526023    -0.72051176     3.69683984     0.02795433    -2.04734270    -1.07587389
Ti      1.82727524     2.73363723     3.68947782     1.55109955     0.69108553    -1.28038722
Ti      1.94009223    -0.98557479     3.62650583     0.10547749    -0.68655010    -0.73697846
O       3.95623601     4.58133998     0.74621898    -0.72184082     1.17556537     0.60468255
O       3.94955102     0.81236900     0.74183200    -0.85445966    -0.02008161    -0.01248040
O      -0.04029097     4.84543800     0.80240099     0.52915020    -0.29196584    -0.06903312
O      -0.06745999     1.07279898     0.82520800     0.88934671    -0.89920124    -0.38177091
O       5.38256725     4.88434724     4.08815181     1.49683948    -0.36935479     0.13286103
O       5.45317923     1.04515920     4.12530883     0.95153144     0.69452850     0.12914193
O       2.09340922     4.62556025     4.03358580    -1.02276953     0.50863021     0.21643323
O       2.04525721     0.79872421     4.06135184    -0.59728574     1.71689103     0.25540988
O       3.83991021     2.84994224     3.25108981    -0.01032273    -0.40062996    -0.82573400
O       3.87767325    -0.71857476     3.14304283    -1.64960163    -1.07781173     0.03895840
O      -0.03667177     2.84892521     3.21500183     0.04496553     0.12642299     0.53036659
O      -0.01078379    -0.61212779     3.16824780    -0.17860200    -0.99937531     1.07522726
O       5.68332101     6.73898301     1.73690399     0.55437864    -0.57000067    -1.13061681
O       5.69378502     2.61280299     1.52338203     0.15718908     0.98419217     1.39264163
O       1.87354099     6.87285300     1.74373900     0.80847752    -1.27990206    -1.86777473
O       1.92575602     2.82721402     1.69768100    -0.24445672    -0.35213842    -0.60241561
