# total energy = -4986.36687944 eV

CRYSTAL
PRIMVEC
        3.81828796     0.00000000     0.00000000
        0.00000000     3.22144567     0.00000000
        0.00000000    -0.00007277     5.05721425
PRIMCOORD
6 1
Ti      1.90914388     1.61068640     2.52860728     0.00000000     0.00000000     0.00000000
Ti      0.00000000     0.00000000     0.00000000     0.00000000     0.00000000     0.00000000
O       1.90914388     0.62779812     0.98557662    -0.00000000    -0.98453927     0.09965548
O       1.90914388     2.59357473     4.07163789    -0.00000000     0.98453927    -0.09965548
O       0.00000000     0.98285928     3.51418487    -0.00000000     0.98402711     0.10000515
O       0.00000000     2.23851352     1.54302969    -0.00000000    -0.98402711    -0.10000515
