# total energy = -19514.35985087 eV

CRYSTAL
PRIMVEC
        5.17600016     0.00000000     0.00000000
        0.00000000     5.50899976     0.00000000
        0.00000000     0.00000000     9.26300011
PRIMCOORD
23 1
Ti      2.00514499     3.00599100     3.29126500    -1.89793558    -0.66279182     0.46538296
Ti      3.19340701     2.32361498     5.76974100     1.61653363     2.03825307     0.74227904
Ti      4.52476299     1.97907301     1.52926298     1.36118443    -1.35104374    -1.85190022
Ti      0.95718698     3.39028999     7.85532798    -1.19823299     0.10072995    -0.73598575
Ti      2.01775301     0.14578701     1.36447100     0.51342429    -1.65421933    -2.13078505
Ti      3.12625902     0.10601997     7.69324898     1.48748066    -1.36573837     2.56920484
Ti      0.77025098     0.63331600     6.10056500    -3.06211558     0.14337351    -1.66633489
Ti      4.49641100     4.78303398     3.30673598     1.48298920    -0.03197579     2.45180360
O       1.68458402     1.83960999     4.81024502    -0.97647500    -0.18381286    -0.29055353
O       3.48071099     3.38986999     4.24051702     0.53502928     1.42208977     2.37059322
O       0.22047302     2.54105401     0.03203099     0.08450705    -0.00492881     1.40310705
O       3.58081899     0.58917902     0.16469599    -0.71850070     1.25912239     0.36415550
O       1.81246600     4.64057798     9.01555899    -0.29357458     0.85599975    -0.08976367
O       4.14774801     0.92073598     5.23095702    -0.52020687    -2.20974366    -1.38572947
O       0.73160199     4.92862001     4.59073901     0.35012447    -0.33364704    -0.45394720
O       0.14386001     3.06647897     2.90891899     0.36057396    -0.60310543    -1.81325061
O       4.93363301     2.32264499     6.77144300     0.11232845     0.56480061     0.51376471
O       2.76953100     1.64679299     2.22286698    -0.77475029     0.12454968     0.81951193
O       2.49748002     4.09727800     6.77707700    -0.97878925     0.59101816    -0.91322070
O       0.13150399     0.09090598     1.79311902     0.95433985     1.48462802     0.66483019
O       4.84416200     4.96137899     7.32184201     1.75086894     0.23352079    -0.06620259
O       2.09702900     1.73688197     7.35477599     0.37896481    -2.00703447    -0.29203835
O       2.94335001     4.20101500     2.13328998    -0.56776818     1.58995587    -0.67492126
