# total energy = -19960.29097216 eV

CRYSTAL
PRIMVEC
        7.60600008     0.00000000     0.00000000
        0.00000000     7.60600008     0.00000000
       -1.89786986    -1.89786986     4.85670466
PRIMCOORD
24 1
Ti      3.80328299     6.47354002     1.23283398    -1.26640659     1.59942319     0.03052492
Ti      3.83612199     2.87644899     1.24765702    -1.65446385    -1.42214659    -1.03033809
Ti     -0.00481303     6.75384500     1.19813302     1.27032495     0.11578042     0.99083153
Ti     -0.02494102     2.95172699     1.22515397     0.96188656    -0.53111041    -0.06136094
Ti      5.71242920     2.88404824     3.66109280     0.69829182    -0.54957453    -0.30049985
Ti      5.76372124    -0.97611078     3.59636982    -0.50480107     0.87370952     0.02374775
Ti      1.93482422     2.82559622     3.63965879    -1.14620336    -0.43435436    -0.53106027
Ti      1.92145625    -1.06976975     3.68288781     0.12802607     0.78679745     0.56671608
O       3.50528402     4.63470703     0.74317902     0.97151303     1.15998088     0.17655875
O       3.59682100     0.76676900     0.88320498     1.25176646     1.92485530    -0.65221070
O       0.07283098     4.87018302     0.73828900    -0.45926630     0.24711139    -0.43758444
O      -0.02724998     1.04756198     0.78029202    -0.06170727    -1.14784089    -0.60341911
O       5.93971221     4.84732124     3.81729280    -0.29664319    -1.06807239     1.62105929
O       5.72889122     1.00730620     3.99269082    -0.36493969     0.26414650     0.13090391
O       1.71830822     4.67868224     4.08207384     0.49770251    -0.61099590     0.01774499
O       1.73308523     0.86179722     4.15953983     1.36875916    -0.12114734    -0.15507280
O       3.82979821     3.12438324     3.29538380    -0.06761670    -1.12775671    -0.07354155
O       3.79005425    -1.11447877     3.23020583     0.77003463    -0.02895089     0.65729068
O       0.07183322     2.58862821     3.10229279    -2.33276816     0.81007520     0.53855247
O       0.09160820    -1.01770178     3.15473082    -1.62124312     0.68472539    -1.04499364
O       5.64631200     6.63942402     1.59058801     1.94389201     0.13472046    -0.01626532
O       5.63257403     3.05473399     1.54782499     0.98684992    -0.29391217     0.49064303
O       1.99061098     6.71862101     1.66247801    -2.41124777    -0.47585172     0.14634416
O       1.80656800     3.08555698     1.71816201     1.33825969    -0.78961230    -0.48457059
