# total energy = -39038.84774487 eV

CRYSTAL
PRIMVEC
        5.93188753     0.00000000     0.00000000
        0.00000000     9.29428401    -0.00002646
        0.00000000    -0.00002646     9.29428401
PRIMCOORD
46 1
Ti      4.44891576     6.97069300     6.97069300     0.00000000     0.00000000     0.00000000
Ti      4.44891576     6.97070623     2.32355100    -0.00000000     0.00000000     0.00000000
Ti      4.44891576     2.32355100     6.97070623     0.00000000     0.00000000     0.00000000
Ti      4.44891576     2.32356423     2.32356423     0.00000000     0.00000000     0.00000000
Ti      1.48297199     6.97069300     6.97069300     0.00000000     0.00000000     0.00000000
Ti      1.48297199     6.97070623     2.32355100    -0.00000000     0.00000000     0.00000000
Ti      1.48297199     2.32355100     6.97070623     0.00000000     0.00000000     0.00000000
Ti      1.48297199     2.32356423     2.32356423     0.00000000     0.00000000     0.00000000
Ti      2.96594376     4.64796271     4.64335130     0.00000000    -0.03097692    -0.02598409
Ti      2.96594376     4.77122743    -0.12409866     0.00000000    -0.03139781     0.03139781
Ti      2.96594376     0.04266136     4.60446741     0.00000000    -0.04201904     0.04201904
Ti      2.96594376     0.00377748    -0.00083394     0.00000000     0.02598409     0.03097692
Ti      0.00000000     4.64335130     4.64796271     0.00000000    -0.02598409    -0.03097692
Ti      0.00000000     4.60446741     0.04266136     0.00000000     0.04201904    -0.04201904
Ti      0.00000000    -0.12409866     4.77122743     0.00000000     0.03139781    -0.03139781
Ti      0.00000000    -0.00083394     0.00377748     0.00000000     0.03097692     0.02598409
O       4.44891576     5.55344236     5.55344236    -0.00000000     0.03466234     0.03466234
O       4.41329935     5.48888901     0.95391385     0.02347367    -0.00536949     0.02705187
O       4.48453216     0.95391385     5.48888901    -0.02347367     0.02705187    -0.00536949
O       4.44891576     0.94046382     0.94046382     0.00000000     0.00065872     0.00065872
O       1.48297199     5.55344236     5.55344236     0.00000000     0.03466234     0.03466234
O       1.51858839     5.48888901     0.95391385    -0.02347367    -0.00536949     0.02705187
O       1.44735559     0.95391385     5.48888901     0.02347367     0.02705187    -0.00536949
O       1.48297199     0.94046382     0.94046382     0.00000000     0.00065872     0.00065872
O       4.44891576     8.38794370     8.38794370     0.00000000    -0.03466234    -0.03466234
O       4.48453216     8.45252351     3.69318821    -0.02347367     0.00536949    -0.02705187
O       4.41329935     3.69318821     8.45252351     0.02347367    -0.02705187     0.00536949
O       4.44891576     3.70666469     3.70666469    -0.00000000    -0.00065872    -0.00065872
O       1.48297199     8.38794370     8.38794370    -0.00000000    -0.03466234    -0.03466234
O       1.44735559     8.45252351     3.69318821     0.02347367     0.00536949    -0.02705187
O       1.51858839     3.69318821     8.45252351    -0.02347367    -0.02705187     0.00536949
O       1.48297199     3.70666469     3.70666469     0.00000000    -0.00065872    -0.00065872
O       2.96594376     6.07127730     7.87010872    -0.00000000    -0.07102881     0.07102881
O       2.96594376     6.08466954     3.25522826     0.00000000     0.02066242     0.03862235
O       2.96594376     1.39187375     7.85674293     0.00000000    -0.03862235    -0.02066242
O       2.96594376     1.45078068     3.19634779     0.00000000     0.05204686    -0.05204686
O       0.00000000     6.03392984     7.90745616     0.00000000     0.02803506    -0.02803506
O       0.00000000     6.06787307     3.24119242     0.00000000     0.01505561     0.03168037
O       0.00000000     1.40590958     7.87353939    -0.00000000    -0.03168037    -0.01505561
O       2.96594376     7.90745616     6.03392984     0.00000000    -0.02803506     0.02803506
O       2.96594376     7.87353939     1.40590958     0.00000000    -0.01505561    -0.03168037
O       2.96594376     3.24119242     6.06787307    -0.00000000     0.03168037     0.01505561
O       0.00000000     7.87010872     6.07127730    -0.00000000     0.07102881    -0.07102881
O       0.00000000     7.85674293     1.39187375     0.00000000    -0.02066242    -0.03862235
O       0.00000000     3.25522826     6.08466954     0.00000000     0.03862235     0.02066242
O       0.00000000     3.19634779     1.45078068     0.00000000    -0.05204686     0.05204686
