# total energy = -19958.02650019 eV

CRYSTAL
PRIMVEC
        7.60600008     0.00000000     0.00000000
        0.00000000     7.60600008     0.00000000
       -1.89786986    -1.89786986     4.85670466
PRIMCOORD
24 1
Ti      3.70886100     6.63791200     1.11312101     2.12643500    -1.20979962     1.79394907
Ti      3.74439001     2.69658000     1.14746499     1.32070754     1.50946514     0.85837031
Ti      0.05868401     6.72225402     1.20858702    -3.66975310     1.06836549     0.16644505
Ti     -0.03074001     2.93698300     1.34402401    -1.40382310    -0.62942429    -2.60235871
Ti      5.78611422     2.91970923     3.70109379    -3.16792809    -1.03547927    -1.42876641
Ti      5.71143821    -0.87297577     3.71766079     0.03806340     1.46063653    -0.96241132
Ti      1.93249621     2.77509123     3.65917083     2.03927637    -3.76320605    -0.53141405
Ti      1.97015225    -1.08936979     3.53768681     0.42230539     2.08970446     1.44509472
O       3.83808899     4.71421702     0.97365000    -0.85356337     0.76256891    -2.04174772
O       3.90401601     0.88315402     0.72542401    -0.44742045    -1.38260867    -1.34920051
O       7.25184001     4.82266698     0.67870401     1.84764324     1.66507711     2.05299990
O       0.01206101     0.98476103     0.97275299    -0.10609893    -0.14926545    -1.53423799
O       5.52258025     4.93152625     3.92101583     1.20240384    -1.93891744     1.51237435
O       5.29946721     1.07801423     4.31943883     1.57111225    -1.76834216    -1.74851715
O       1.90184922     4.50166821     3.82093783    -0.30325222     4.83456251     1.29563490
O       2.40147124     0.88681122     4.00288881    -2.24888332    -0.54149252     1.00566243
O       3.77616520     2.81773323     3.10298284    -0.84677437     0.41152604     0.15659284
O       3.89810325    -0.93574477     2.99470481    -1.84190042    -0.54425209     0.62232624
O      -0.02889477     2.67150023     3.21677881     0.37544702     0.27136641     1.86769168
O       0.03464322    -0.80066180     3.30562883     0.74987614    -0.67310066     0.21880816
O       5.80484001     6.79194598     1.71802802    -0.02977750    -0.04786239    -0.33325752
O       5.60447800     2.78473098     1.70087998     1.42208694     0.07544134     0.51640292
O       1.85358101     6.92889102     1.71018302     1.43077059    -1.17181721    -1.48275600
O       1.84031602     2.71175897     1.49871702     0.37304767     0.70685360     0.50231481
