# total energy = -19960.78561670 eV

CRYSTAL
PRIMVEC
        5.93400000     0.00000000     0.00000000
        0.00000000     9.29699974     0.00000000
        0.00000000     0.00000000     4.64899994
PRIMCOORD
24 1
Ti      4.41514398     6.94513999     2.28215198     0.70328696     0.19396435     0.90448563
Ti      4.50959899     2.46991100     2.34283099    -1.01807135    -1.38039572    -0.16054874
Ti      1.48339702     6.97228800     2.23846099    -0.64918193     0.41854053     1.03829772
Ti      1.49921498     2.23445798     2.40176498     0.85045902    -0.12561823     0.65062741
Ti      2.95492598     4.64435297     0.03085902    -0.08079746    -0.68070470    -0.28978709
Ti      2.93789901     9.23299703     0.05400799     1.07087078     0.86609133    -0.99411226
Ti      0.00170702     4.70490302     4.64263098     0.00519672    -0.33228512    -0.51257506
Ti      5.90974802     0.00986598     4.63803698    -1.16286025    -0.05177381    -0.07887993
O       4.40058599     5.59764600     0.78442500     0.47715604    -0.07864468     0.20886030
O       4.46256000     0.92955202     0.90372198     0.03273813    -0.84133134    -0.36733133
O       1.54183502     5.65104099     0.89906903    -0.40341806    -1.23145500    -1.51913481
O       1.47694302     0.84469199     0.94570298    -0.07911596     0.32908847     0.30553433
O       4.43603801     8.38732701     3.67985600    -0.03676756    -0.10064973     0.34607447
O       4.48845699     3.67537699     3.76501602     0.08628471     1.62332855     1.27849592
O       1.44705302     8.36541600     3.66746902     0.36297922     0.55240275     0.55188904
O       1.49070300     3.65685499     3.87676698    -0.21282571     0.37158805    -0.31511169
O       2.89458299     5.99086999     3.04734800     0.45321161    -0.25253745     1.06994544
O       3.07024502     1.46616098     3.25724198    -1.82386001    -0.33400262    -0.16788847
O       0.03664399     6.01646598     3.17023402    -0.31253699    -0.29457577     0.41897479
O       5.89542102     1.46988300     3.33578199     1.37852678    -0.26181425    -0.69764648
O       3.02579699     7.93501900     1.42030698    -0.61148106    -0.24938193    -0.18225966
O       3.07282000     3.33265799     1.51153100    -1.54075651     0.11490161    -0.68127600
O       5.82052699     7.71210499     1.31143802     0.84808589     1.14027670    -0.19449220
O       5.90559800     3.26951100     1.48569302     1.66287676     0.60498800    -0.61214081
