# total energy = -4985.54515527 eV

CRYSTAL
PRIMVEC
        3.20823703     0.00000000     0.00000000
        2.15307271     4.54238516     0.00000000
       -0.00001407    -0.00006755     5.16573644
PRIMCOORD
6 1
Ti      2.68064773     2.27115883     2.58286811     0.00000000     0.00000000     0.00000000
Ti      0.00000000     0.00000000     0.00000000     0.00000000     0.00000000     0.00000000
O       2.02371786     0.88523086     1.00672592    -0.86592858     0.80052047     0.41440311
O       3.33757755     3.65708681     4.15901030     0.86592858    -0.80052047    -0.41440311
O       0.65692399     1.38590071     3.58959509     0.86692386    -0.80106862     0.41527317
O       1.49613453     3.15641682     1.57614112    -0.86692386     0.80106862    -0.41527317
