# total energy = -19074.59678667 eV

CRYSTAL
PRIMVEC
        5.17600016     0.00000000     0.00000000
        0.00000000     5.50899976     0.00000000
        0.00000000     0.00000000     9.26300011
PRIMCOORD
22 1
Ti      1.87746802     3.41657402     3.40624601    -0.19558698     1.26306955    -1.41800737
Ti      3.70283700     2.26666100     5.88847499    -2.39685936     0.36296328     0.31045439
Ti      4.31583402     2.30891898     1.29951502     0.83415205     0.18051105    -1.61600193
Ti      0.71759901     3.21221598     8.04069999     0.25886262     0.63137190     0.53677866
Ti      1.78596401     0.56994501     1.20324101     0.13393550    -0.22605610    -0.95223515
Ti      3.19969998     5.01268198     8.03446300    -0.02714186    -0.18895918    -0.09731526
Ti      0.67646098     0.10648502     6.06412897     1.78363380     1.00195645    -0.91932193
Ti      4.44031101     5.02207700     3.39102402     0.11115963    -0.48321511    -0.81985877
O       3.48462701     3.53202599     4.33651199     1.14958924    -1.62707516     2.34748413
O       0.84614500     2.04769799     0.14649801    -0.11146816    -1.42376099     0.64363658
O       4.23678801     3.74955600     8.98143198     0.55106526    -0.84274879     0.54278296
O       3.36555599     0.82221402     0.17321099     1.06077148     0.89932697    -0.48284461
O       1.72315898     4.63374001     8.99946698    -2.10183185     0.56320344     1.18630410
O       4.38271398     0.58858798     4.89040500    -1.17995835     1.50784329     0.63528049
O       1.15016802     4.95929599     4.27701300    -0.57228664    -1.01486339     1.61636934
O       0.14216098     3.49190801     2.45524501    -0.22245116    -0.20399423     0.01545311
O       0.08698801     1.87121103     6.81048898    -0.51410975    -0.79484578    -0.37256687
O       2.61472999     2.09275500     2.11136701     0.25184505     0.07872335     1.05601828
O       2.27803398     3.41301398     6.96046602     1.01346471     0.34099243    -1.11900108
O       0.09698602     0.84149200     2.19190699    -0.52451630    -0.50145143     0.17504745
O       2.43659601     0.77577702     6.74873098     0.24628041    -0.27933041    -0.95083055
O       2.72038700     4.75276102     2.34418801     0.45145066     0.75633887    -0.31762623
