# total energy = -19938.97304717 eV

CRYSTAL
PRIMVEC
        6.89022080     0.00000000     0.00000000
        0.00002600     4.39996696     0.00000000
        0.00000000     0.00000000    10.52328954
PRIMCOORD
24 1
Ti      2.49738885     2.60741633     3.90406538     0.33970122     0.54931151     0.54472106
Ti      4.39285750     1.79255058     6.61922427    -0.33970122    -0.54931151    -0.54472106
Ti      5.94238071     1.79255206     1.35753740     0.33943717    -0.54929377    -0.54454391
Ti      0.94786570     2.60741502     9.16575231    -0.33943717     0.54929377     0.54454391
Ti      2.49737608     0.40743290     1.35757961     0.33970122     0.54931151    -0.54472106
Ti      4.39287028     3.99253411     9.16571015    -0.33970122    -0.54931151     0.54472106
Ti      0.94785287     0.40743131     6.61918206    -0.33943717     0.54929377    -0.54454391
Ti      5.94239348     3.99253571     3.90410754     0.33943717    -0.54929377     0.54454391
O       2.18080742     1.54930312     5.36995412     1.42877875     0.29816580    -0.22009603
O       4.70943899     2.85066373     5.15333553    -1.42877875    -0.29816580     0.22009603
O       1.26436134     1.54932089     0.10834317    -1.42823908     0.29803930    -0.22056654
O       5.62588512     2.85064602    10.41494614     1.42823908    -0.29803930     0.22056654
O       4.70942622     0.65068019     0.10830902    -1.42877875    -0.29816580    -0.22009603
O       2.18082019     3.74928666    10.41498030     1.42877875     0.29816580     0.22009603
O       5.62587229     0.65066248     5.36998822     1.42823908    -0.29803930    -0.22056654
O       1.26437400     3.74930442     5.15330138    -1.42823908     0.29803930     0.22056654
O       0.25035338     2.67630933     2.84260304    -1.20270106     0.51083391     1.03902611
O       6.63989303     1.72365752     7.68068656     1.20270106    -0.51083391    -1.03902611
O       3.69547171     1.72361661     2.41907521    -1.20231256    -0.51066447    -1.03946860
O       3.19477464     2.67635029     8.10421422     1.20231256     0.51066447     1.03946860
O       0.25034055     0.47632579     2.41904162    -1.20270106     0.51083391    -1.03902611
O       6.63990580     3.92364105     8.10424781     1.20270106    -0.51083391     1.03902611
O       3.19476187     0.47636675     7.68072009     1.20231256     0.51066447    -1.03946860
O       3.69548449     3.92360009     2.84256945    -1.20231256    -0.51066447     1.03946860
