# total energy = -19069.02319491 eV

CRYSTAL
PRIMVEC
        5.17600016     0.00000000     0.00000000
        0.00000000     5.50899976     0.00000000
        0.00000000     0.00000000     9.26300011
PRIMCOORD
22 1
Ti      1.82460803     3.36436698     3.12674702     0.78244432     2.46709370     2.89548309
Ti      3.73237202     2.69114498     6.03825300    -2.28758769    -3.19325809     1.47439066
Ti      4.40558201     2.31021499     1.55511102     1.05932241    -1.58474244     1.57756752
Ti      0.80182302     2.45710502     7.94291200     2.29552906     0.50262026    -2.81276913
Ti      1.92401900     0.62110301     1.09700201    -1.94484692    -1.52279786     0.04290170
Ti      3.42049199     5.45967298     7.60609698    -2.50855687     0.02257249    -1.53518081
Ti      0.90200998     5.12179098     6.59329601     0.01073385     0.48667838    -4.12153800
Ti      4.21316199     5.01990001     3.64668701     2.73445176     3.01470288     3.81197681
O       3.65555999     3.27309798     4.39093100    -1.00163814     1.45942940    -1.70527761
O       0.59325998     1.94627000     0.36982198     0.84560015     0.40631544    -0.05168691
O       4.77917400     3.97995400     7.55049997    -0.73458013    -0.70610387    -0.73745565
O       3.29905502     0.76127000     0.00688602     2.55877978     1.20117485     1.11608210
O       1.42133400     5.41759598     8.21072300     0.33313153    -0.20189569     5.84405383
O       3.77000902     0.79655501     5.13124600     1.07330253    -2.07658438    -3.18435230
O       0.87076699     4.95170198     4.54920701     0.10984888    -2.11128965     0.87081214
O       0.23492798     3.71630800     2.41879401    -2.16611948    -0.17308313    -1.57452051
O       4.72065499     1.43620500     7.08154601     0.92168889    -1.36599162     1.22648711
O       2.61495700     2.06726702     2.12661202    -0.33527609    -0.26283523    -0.17213054
O       2.43234899     3.45368802     7.28570799    -0.71855547     0.74831471    -0.92522519
O       5.15512301     0.88156501     2.45780602    -0.57163178     0.51224827    -0.41815975
O       2.09464300     1.10593002     6.52844301     0.62180533     2.52913675     0.06650958
O       2.75566899     4.91932998     2.48603498    -1.07784541    -0.15170491    -1.68796816
