# total energy = -4988.29095181 eV

CRYSTAL
PRIMVEC
        3.45930341     0.00000000     0.00000000
        0.00000000     4.43471717     0.00000000
        0.00000000    -0.00006512     4.97723597
PRIMCOORD
6 1
Ti      1.72965170     2.21732597     2.48861810     0.00000000     0.00000000     0.00000000
Ti      0.00000000     0.00000000     0.00000000     0.00000000     0.00000000     0.00000000
O       1.72965170     0.86424836     0.96999004     0.00000000     0.14927959     0.09381162
O       1.72965170     3.57040358     4.00724615     0.00000000    -0.14927959    -0.09381162
O       0.00000000     1.35305127     3.45860903     0.00000000    -0.14907647     0.09374683
O       0.00000000     3.08160067     1.51862716     0.00000000     0.14907647    -0.09374683
