# total energy = -4983.80449669 eV

CRYSTAL
PRIMVEC
        2.98016331     0.00000000     0.00000000
        2.00001067     4.21946678     0.00000000
       -0.00001307    -0.00006274     4.79850399
PRIMCOORD
6 1
Ti      2.49008036     2.10970204     2.39925189     0.00000000     0.00000000     0.00000000
Ti      0.00000000     0.00000000     0.00000000     0.00000000     0.00000000     0.00000000
O       1.87985166     0.82229976     0.93515773    -4.89247354     2.31495530     2.78987936
O       3.10030900     3.39710434     3.86334606     4.89247354    -2.31495530    -2.78987936
O       0.61022323     1.28737696     3.33441061     4.89212773    -2.31507280     2.78985082
O       1.38977425     2.93202699     1.46409317    -4.89212773     2.31507280    -2.78985082
