# total energy = -19943.74268285 eV

CRYSTAL
PRIMVEC
        5.64773586     0.00000000     0.00000000
        2.31191064     5.54851082     0.00000000
        0.00000000     0.00000000    10.32489711
PRIMCOORD
24 1
Ti      3.41706876     3.28804248     3.83046319     1.11138032    -3.07439569     0.99016228
Ti      4.54257783     2.26046850     6.49443404    -1.11138032     3.07439569    -0.99016228
Ti      5.81268275     2.26047039     1.33194415    -2.64839459    -0.58057845     0.77312612
Ti      2.14696389     3.28804081     8.99295313     2.64839459     0.58057845    -0.77312612
Ti      2.26111355     0.51378705     1.33198554     1.11138032    -3.07439569    -0.99016228
Ti      5.69853307     5.03472410     8.99291174    -1.11138032     3.07439569     0.99016228
Ti      0.99100854     0.51378500     6.49439259     2.64839459     0.58057845     0.77312612
Ti      6.96863808     5.03472614     3.83050458    -2.64839459    -0.58057845    -0.77312612
O       2.60160708     1.95372504     5.26871598     1.34316922     1.91723043    -1.01939933
O       5.35803945     3.59478595     5.05618124    -1.34316922    -1.91723043     1.01939933
O       1.85042929     1.95374746     0.10630061     0.32755918    -0.82819506     1.07022749
O       6.10921738     3.59476362    10.21859628    -0.32755918     0.82819506    -1.07022749
O       4.20208422     0.82053040     0.10626709    -1.34316922    -1.91723043    -1.01939933
O       3.75756237     4.72798057    10.21862980     1.34316922     1.91723043     1.01939933
O       4.95326208     0.82050803     5.26874945    -0.32755918     0.82819506     1.07022749
O       3.00638441     4.72800303     5.05614772     0.32755918    -0.82819506    -1.07022749
O       1.61143044     3.37491897     2.78901231     0.51015488     1.63840396     1.53514687
O       6.34821610     2.17359202     7.53588492    -0.51015488    -1.63840396    -1.53514687
O       3.93472846     2.17354038     2.37346914     1.30892802     1.04469848     0.24871627
O       4.02491808     3.37497061     7.95142792    -1.30892802    -1.04469848    -0.24871627
O       0.45547520     0.60066337     2.37343613     0.51015488     1.63840396    -1.53514687
O       7.50417139     4.94784760     7.95146087    -0.51015488    -1.63840396     1.53514687
O       2.86896285     0.60071506     7.53591781    -1.30892802    -1.04469848     0.24871627
O       5.09068369     4.94779592     2.78897936     1.30892802     1.04469848    -0.24871627
