# total energy = -39033.75253449 eV

CRYSTAL
PRIMVEC
        5.93200024     0.00000000     0.00000000
        0.00000000     9.29399984     0.00000000
        0.00000000     0.00000000     9.29399984
PRIMCOORD
46 1
Ti      4.42934000     6.88309401     7.02932499    -0.77965544     1.47894434    -0.67996782
Ti      4.52136202     6.98272602     2.46402300    -2.31706360     0.39887029    -1.07764718
Ti      4.49318497     2.23634301     7.05980799    -0.58746078     0.60243541    -0.62597283
Ti      4.19077499     2.69941502     2.13051899     0.68443306    -1.64000370     0.02090848
Ti      1.35935899     7.01992702     7.07711499     0.99703021     0.04250652    -1.03500696
Ti      1.41315102     7.00571898     2.31276801     2.82537397     0.30842811    -0.89065129
Ti      1.46822699     2.27320597     6.92649802     0.50905239     1.48585649     0.01060606
Ti      1.31370898     2.11183999     2.57395201     0.24502519    -0.14397592    -1.23067673
Ti      2.96445101     4.69437001     4.60151200    -0.18570211    -1.47863169     1.17667094
Ti      3.02638300     4.82680699     9.17546202    -0.18643899    -0.09081345     0.28039176
Ti      2.94690402     0.01838499     4.70639901     1.57133131    -1.25886168    -0.18851515
Ti      2.97930702     9.26053901     0.06867599     1.18772952     1.18282925     0.01586937
Ti      0.00238199     4.67753302     4.55126900     0.18701234    -1.67743178     1.69710252
Ti      0.08478399     4.56361402     9.23052302     0.19570088     0.03217428     0.48766955
Ti      0.03272998     9.20244498     4.80590402    -1.81604797    -1.27163236    -0.31267917
Ti      0.03982498     9.22790200     0.10891002    -1.42241604     2.04627697    -0.79660262
O       4.42221098     5.53148202     5.53206300     0.39123694    -0.46361507    -0.57684803
O       4.56132702     5.54924099     0.83499497    -0.48572810    -0.46292035     0.88842214
O       4.58965102     0.79489101     5.70233398    -0.94963525    -0.07644921    -1.45217812
O       4.46823998     1.16225501     0.58923400    -0.18730571    -0.62741060     1.48296117
O       1.50039002     5.49740200     5.54289298    -0.23479117     0.28582347    -0.19741734
O       1.57536702     5.54442701     0.83757302    -0.74578552    -0.50350060     0.84474860
O       1.46657501     0.81092598     5.47976198     0.92423248     1.56909316     0.50175945
O       1.52511900     1.09384700     0.78292197    -0.29136497    -0.55050296     1.53106448
O       4.57903901     8.33971498     8.30814299    -0.66293477     0.51271338     0.76687680
O       4.58551402     8.44440100     3.68778799    -0.58558182    -0.00311978    -0.66130186
O       4.48435697     3.86117398     8.31846100     0.22451807    -1.50822484     0.12371279
O       4.48093701     3.57682201     3.74667098    -0.04771815     1.67957248    -0.01929665
O       1.48904599     8.58427102     8.46058398     0.05570554    -2.64161356    -2.32148590
O       1.56851100     8.25989801     3.77965502    -0.23507862     1.02880880    -0.58937702
O       1.56825599     4.01778499     8.06024001    -0.46412749    -1.43965324     1.62470229
O       1.48043501     3.47188002     3.79859798    -0.30921769     2.03664536     0.58650844
O       2.94318501     6.23859602     8.05881198    -0.31596221     0.84596576    -1.43686848
O       2.97543599     6.10492500     3.15893799     0.23052108    -0.85980473     0.37699817
O       2.91169701     1.48477802     7.84286998     0.46517187    -0.37561671    -0.11715339
O       3.05640101     1.53155602     3.12261801     0.06249583    -0.94682375    -0.11032094
O       5.86828598     6.04040098     7.90675099     1.23678747     0.28760833    -0.09762097
O       0.05212602     6.04511701     3.10674000    -0.47401081    -1.48544846     1.58652602
O       0.05424300     1.22183900     7.77143798     0.34674141     1.84897019    -0.25289843
O       3.03239800     7.85386798     5.97031098    -0.70528625     0.39039696     0.46203049
O       2.89382299     7.89467998     1.32427300     0.67251702     0.17702643     0.58687740
O       3.04712903     3.17066800     5.93933099    -0.12451112    -0.37566377     0.43186784
O       5.86611201     7.72442498     5.92392500     1.04539859    -0.06698909     1.06425995
O       5.89033002     7.76197698     1.33805701     0.27659758     0.99439663     0.12825619
O       0.02220502     3.16702302     6.05401799    -0.42766203     0.26930284    -0.21335202
O       0.02372101     3.18183300     1.68722499     0.20687361     0.44406233    -1.79295200
