# total energy = -19958.56582530 eV

CRYSTAL
PRIMVEC
        7.60600008     0.00000000     0.00000000
        0.00000000     7.60600008     0.00000000
       -1.89786986    -1.89786986     4.85670466
PRIMCOORD
24 1
Ti      3.95057302     6.56797800     1.27876402    -3.01149491    -0.30483653    -2.23508960
Ti      3.91720702     2.82834799     1.21066103     0.00639305     0.22054828     0.00830338
Ti     -0.14651701     6.69829298     1.31496599     1.74466563    -2.73186986    -2.51395696
Ti     -0.06454200     2.72211497     1.21328199     0.41613294     3.11055441     1.92601821
Ti      5.63177624     2.84646422     3.72298580     2.26796220     1.09419172     1.36048997
Ti      5.59201222    -0.87745478     3.66634780    -0.41240639    -0.83928372     0.62473845
Ti      1.92480721     2.92173921     3.50156084    -0.29536741     0.95088069     1.70270084
Ti      1.80871324    -0.82847080     3.56882382     1.46041028    -1.16320813     0.25061580
O       3.91054002     4.74586700     0.66818301     0.23881289     1.12688794     1.69233570
O       4.08649400     0.94139500     0.67951402    -0.99520344    -0.28437671    -0.40740147
O      -0.32350801     4.69581202     0.86139198     1.27584383     0.06998237     0.50407627
O      -0.13330901     0.92030999     0.74533298     0.30425366     0.06137920     0.50047082
O       5.51900523     4.64265421     4.17681784     0.63097466     2.64450991     0.43121967
O       5.58657720     0.99107623     3.96957081     0.55264006    -3.12046370     1.28914955
O       2.24599124     4.68071624     3.61312183    -1.45450702     1.88247630     1.87259041
O       2.03427922     1.04226820     4.12079680    -0.35611643    -2.75978999    -1.09521631
O       3.98074422     2.85871822     3.20209080    -3.45876418    -0.64404641    -0.98569524
O       3.74502725    -0.98183976     3.13647881     1.87354017     0.32039942     1.17428778
O       0.05112921     2.74205723     3.25863583    -0.11116503     0.04495987    -0.49281870
O      -0.11306877    -1.16349376     3.21911581     1.53742539     0.72315569     0.77969915
O       5.68514498     6.79594402     1.74562298     0.81280906     0.15214046    -0.40768352
O       5.79037601     2.86885403     1.82598701    -0.28862701    -0.42328653    -2.62030322
O       2.07322201     6.69775301     1.59002301    -2.82064417     0.65980111     0.09288654
O       1.96988798     2.83763701     1.70468101     0.08243191    -0.79070553    -3.45141700
