# total energy = -4965.38964112 eV

CRYSTAL
PRIMVEC
        5.59633271     0.00000000     0.00000000
       -0.00000773     2.69453039     0.00000000
       -2.79819771    -1.34734048     6.02905162
PRIMCOORD
6 1
Ti     -0.00023908     2.02098714     1.50726259    -0.01378806    -0.01453908    24.20555068
Ti      2.79836629    -0.67379740     4.52178829     0.01378806     0.01453908   -24.20555068
O       0.00005955     0.67361968     0.98208310     0.01091588     0.01437016   -18.46390135
O       2.79806748     0.67356995     5.04696783    -0.01091588    -0.01437016    18.46390135
O      -0.00002286    -0.67365031     3.99660880    -0.00178717    -0.00040675    -1.91576541
O       2.79814984     2.02083994     2.03244213     0.00178717     0.00040675     1.91576541
