# total energy = -4987.49672572 eV

CRYSTAL
PRIMVEC
        4.07329540     0.00000000     0.00000000
        1.38328214     3.83122251     0.00000000
       -2.72832593    -1.91563735     5.28238723
PRIMCOORD
6 1
Ti      1.03734417     2.87356384     1.32059686     0.00024708    -0.00024708     0.00000000
Ti      1.69090673    -0.95797917     3.96179048    -0.00024708     0.00024708     0.00000000
O       0.34586297     0.95780035     0.86045777    -0.00055382    -0.00090374    -1.50700588
O       2.38238774     0.95778418     4.42192968     0.00055382     0.00090374     1.50700588
O      -0.34582993    -0.95777721     3.50165138    -0.00090374    -0.00055382    -1.50700588
O       3.07408058     2.87336170     1.78073607     0.00090374     0.00055382     1.50700588
