# total energy = -4988.85304102 eV

CRYSTAL
PRIMVEC
        3.44595268     0.00000000     0.00000000
        0.00000000     3.99078078     0.00000000
        0.00000000    -0.00006296     4.80310582
PRIMCOORD
6 1
Ti      1.72297639     1.99535875     2.40155291     0.00000000     0.00000000     0.00000000
Ti      0.00000000     0.00000000     0.00000000     0.00000000     0.00000000     0.00000000
O       1.72297639     0.77773206     0.93605456    -0.00000000     0.00044609     0.01807692
O       1.72297639     3.21298538     3.86705120    -0.00000000    -0.00044609    -0.01807692
O       0.00000000     1.21760124     3.33760854     0.00000000    -0.00023628     0.01748685
O       0.00000000     2.77311625     1.46549728     0.00000000     0.00023628    -0.01748685
