# total energy = -19937.93981794 eV

CRYSTAL
PRIMVEC
        4.98795363     0.00000000     0.00000000
        2.04182762     4.90032031     0.00000000
        0.00000000     0.00000000     9.11871755
PRIMCOORD
24 1
Ti      3.01787848     2.90392537     3.38297917     3.76440701    -3.70116454     1.25900489
Ti      4.01190285     1.99639508     5.73573848    -3.76440701     3.70116454    -1.25900489
Ti      5.13363102     1.99639674     1.17634320    -7.73236783     1.43896598     2.16601252
Ti      1.89615035     2.90392390     7.94237450     7.73236783    -1.43896598    -2.16601252
Ti      1.99696477     0.45376519     1.17637975     3.76518529    -3.70052330    -1.25929157
Ti      5.03281659     4.44655540     7.94233794    -3.76518529     3.70052330     1.25929157
Ti      0.87523652     0.45376339     5.73570187     7.73311139    -1.43837720     2.16620253
Ti      6.15454485     4.44655720     3.38301572    -7.73311139     1.43837720    -2.16620253
O       2.29768102     1.72548613     4.65321178    -0.94818617     0.32801298    -1.21186678
O       4.73210026     3.17483432     4.46550587     0.94818617    -0.32801298     1.21186678
O       1.63425765     1.72550593     0.09388231     1.65415223    -0.51296458    -1.05039116
O       5.39552376     3.17481460     9.02483503    -1.65415223     0.51296458     1.05039116
O       3.71118653     0.72467405     0.09385271     0.94794475    -0.32829040    -1.21187398
O       3.31859480     4.17564640     9.02486464    -0.94794475     0.32829040     1.21187398
O       4.37460997     0.72465429     4.65324133    -1.65445253     0.51275401    -1.05023998
O       2.65517128     4.17566622     4.46547626     1.65445253    -0.51275401     1.05023998
O       1.42317922     2.98065274     2.46319312     0.03971122    -2.24183258    -2.11877594
O       5.60660207     1.91966771     6.65552453    -0.03971122     2.24183258     2.11877594
O       3.47506392     1.91962211     2.09619471     2.22181139    -2.25364089    -3.19294904
O       3.55471737     2.98069834     7.02252279    -2.22181139     2.25364089     3.19294904
O       0.40226548     0.53049242     2.09616556     0.03962329    -2.24164515     2.11777886
O       6.62751586     4.36982802     7.02255189    -0.03962329     2.24164515    -2.11777886
O       2.53380364     0.53053807     6.65555358    -2.22187516     2.25350771    -3.19232118
O       4.49597765     4.36978238     2.46316401     2.22187516    -2.25350771     3.19232118
