# total energy = -19961.83834793 eV

CRYSTAL
PRIMVEC
        7.60600008     0.00000000     0.00000000
        0.00000000     7.60600008     0.00000000
       -1.89786986    -1.89786986     4.85670466
PRIMCOORD
24 1
Ti      3.77722101     6.58084098     1.24265900     0.48705119    -0.48439139     0.16547549
Ti      3.77969301     2.79004800     1.19821203     0.42088357     0.31200631     1.19897064
Ti      0.04141600     6.70634902     1.26462001    -0.58117469    -0.20564796    -1.21520588
Ti      0.01796499     2.90117300     1.16284198    -0.40321855     0.37130394    -0.43698666
Ti      5.70962324     2.95905425     3.60012581    -1.07512441     0.18773431     0.13593736
Ti      5.72605022    -0.89637879     3.64626081    -0.53980742    -0.21070970    -0.28160403
Ti      1.82213121     2.79511725     3.64261483     0.86653074     0.25519237    -0.12783350
Ti      1.86836924    -1.00419379     3.68324183     0.69151156    -0.37093448    -0.23270241
O       3.77879600     4.65021901     0.76589601    -0.23070569     0.85505153     0.21829522
O       3.79433598     0.88573101     0.77908401    -0.15204970    -0.63502081     0.39766419
O       0.13855300     4.88272801     0.70154298    -0.53560830    -1.34035180     0.81796592
O       0.07697502     0.98297003     0.76831499    -0.30059061     0.75200656     0.10391143
O       5.79827022     4.85264222     4.04990579    -0.01979673     0.03312996    -0.10253769
O       5.76051924     1.08817925     3.96543984    -0.43800970    -1.54127279     0.96044494
O       1.83424921     4.65119624     4.08766883    -0.23901935     0.69637686     0.06978465
O       1.91449624     0.88351524     4.11530183    -0.08180611    -0.01364793    -0.97698742
O       3.78890720     2.89966622     3.22122681    -0.76121471    -0.14542371    -0.04916105
O       3.80025922    -1.12415277     3.24054781    -0.29836249     0.72165416    -0.06581589
O      -0.07820478     2.88008724     3.10959380     1.55871336     0.07089691     0.38273610
O       0.00412023    -0.82204876     3.18248283     0.39752818    -0.14797733     0.78652415
O       5.71885198     6.59770501     1.66833701    -0.42671818     0.17859223    -0.44205662
O       5.65472798     2.87660002     1.63078299     0.50751178    -0.00565129    -0.99625091
O       1.88770802     6.50580100     1.67806398     0.83581838     0.54606600     0.04296006
O       1.85169402     2.76552000     1.66332300     0.31765760     0.12101724    -0.35352810
