# total energy = -19073.66408478 eV

CRYSTAL
PRIMVEC
        5.93400000     0.00000000     0.00000000
        0.00000000     9.29699974     0.00000000
        0.00000000     0.00000000     4.64899994
PRIMCOORD
22 1
Ti      4.31141597     6.95727301     2.26941601     1.27893969    -0.94860552    -0.04351002
Ti      4.36492998     2.36169399     2.23114400     1.64960266     0.94096883    -0.87430241
Ti      1.54055499     6.94178902     2.57053898    -1.84226835     0.58927701     0.18508556
Ti      1.64200399     2.38830700     2.16268101    -1.79192973     1.00701124    -1.48397830
Ti      3.02353799     4.60678001     4.44026000    -0.44734846     1.17789324     1.15990374
Ti      2.96573601     9.29379298     4.52406300    -0.08122555     0.44645115     0.78371933
Ti      5.92660999     4.63546301     4.57686801    -0.47553342    -0.03434738     0.44514220
Ti      5.88238400     9.13144701     0.26094402     0.29621691     0.04768910     1.01844802
O       4.48316500     5.55184402     0.89879401    -0.04018841     0.37826058     1.36978657
O       4.35106299     1.06399198     0.88583197     1.09026333    -1.82389369    -0.97722834
O       1.54726702     0.90252000     0.95965601    -0.58508997    -0.13590445    -0.66226320
O       4.47966598     8.19013901     4.09826200     0.12355235     1.59280491    -1.37822879
O       4.46151398     3.95911299     3.60041300     0.48996888    -2.17458175    -1.35563418
O       1.47455299     8.25514002     3.89630902    -1.12988302     1.78566215     0.36088532
O       1.53076902     3.86767497     3.49706198    -0.00578961     0.21441980     0.80035771
O       2.97206100     6.41486797     3.62435001     0.18311995    -2.70707901    -0.87795672
O       2.99070402     1.46621099     3.11190403    -0.08023696    -1.38000645     2.03270823
O       5.83619302     6.09497302     3.37370098     1.30003869    -0.26208601    -0.66787695
O       2.90779602     7.99133198     1.59398602    -0.20539831    -0.44969742    -0.16606993
O       3.06198499     3.20875801     1.21684700    -0.41160806     0.89564206    -0.04021001
O       5.91703400     7.85472302     1.57697202     0.31240792     0.32943891     0.22957723
O       0.00085901     3.08798400     1.32187900     0.37238946     0.51068221     0.14164444
