# total energy = -19516.08704159 eV

CRYSTAL
PRIMVEC
        5.17600016     0.00000000     0.00000000
        0.00000000     5.50899976     0.00000000
        0.00000000     0.00000000     9.26300011
PRIMCOORD
23 1
Ti      1.75246402     3.32608698     3.48851302     0.14938449    -2.00295953     2.76455167
Ti      3.41656200     2.31193699     5.85254100    -0.44324704    -0.02725010    -3.37022821
Ti      4.39565602     2.00463201     1.60512001     0.18018915    -1.42964290    -1.29687880
Ti      1.15083399     3.25336401     7.88798700    -4.15798932     0.06076727     1.46633384
Ti      2.04878799     0.32245701     1.24429601    -2.50547591     0.24584049    -0.31053950
Ti      3.32250202     5.38040800     7.77305298     0.70422285    -1.37096568     1.57601560
Ti      0.58348698     0.42964499     5.92192402     0.13375655     2.02607555    -2.76493914
Ti      4.40480798     4.87734300     3.30501800    -0.62815159     1.30503923     3.33425127
O       1.43097201     2.20698902     4.92521698     0.67630914     0.09979252    -1.05054183
O       3.33652802     3.64293303     4.57608699     0.99401765     1.36198764    -0.63098546
O       0.27994699     2.46705598     0.17746901     0.86957364     0.43276002    -0.48182080
O       3.40281297     0.85627801     0.19010799     1.90572705     0.98683501    -1.56638965
O       1.79424701     4.86859300     8.82630600    -0.82609318    -0.60122699     0.58027146
O       4.32272799     0.91339602     4.56064899    -1.41212109    -0.12271083     0.77791815
O       0.84338201     4.86498300     4.41433100     1.43121822    -1.23179696    -0.01729710
O       0.00267901     3.24462300     2.72486199    -0.04233272    -0.27757126    -0.50207596
O       4.90962202     2.01270800     6.78790899     1.83255266    -0.55860888     1.74869790
O       2.44919302     1.84696799     2.24766698     0.77161406     1.36868717     0.45671834
O       2.80648398     3.39738298     7.31721499     1.79328984     1.01625538    -0.45275549
O       0.11500001     0.34286299     2.04785500     0.91609005     1.51169455    -1.83218808
O       5.17170202     4.67318398     7.16904599    -1.02578570     0.21474967     0.29778271
O       2.41214400     0.98852199     6.68188102    -1.65160041    -1.94497110     0.72714090
O       2.78960402     4.55755103     2.21933700     0.33485186    -1.06278003     0.54695843
