# total energy = -19074.00559882 eV

CRYSTAL
PRIMVEC
        5.93400000     0.00000000     0.00000000
        0.00000000     9.29699974     0.00000000
        0.00000000     0.00000000     4.64899994
PRIMCOORD
22 1
Ti      4.50036199     6.93434900     2.44014499    -2.04125484    -0.64352036    -0.83270066
Ti      4.44250001     2.42338002     2.13544902     0.46826259    -0.89733333     0.39122280
Ti      1.48812199     7.31024101     2.58490799     2.01684374    -1.28184658    -0.68143052
Ti      1.57481102     2.35039600     2.17452299    -0.23277388     0.30802727     0.93125468
Ti      3.01770799     4.50477798     4.53455801    -0.53859129     1.29361118     0.03318164
Ti      2.97433800     0.10571803     0.05000101     0.52134355     0.15495916    -0.11170907
Ti      5.78134602     4.57235799     4.42395801     0.15642443    -0.55188673     0.25326121
Ti      5.88505698     9.10888401     0.14931302    -0.32153585     0.75258094     0.85309620
O       4.43450102     5.54274402     0.84489599    -0.44557491    -0.43678071     0.37292682
O       4.43497601     0.76550098     1.05210301     1.23370780     0.59824888    -0.19748034
O       1.50303998     0.78403700     1.01389499    -0.86519453     0.76453863     0.13752887
O       4.55255099     8.23462699     3.91685300    -0.69452567     1.00259922    -0.41865083
O       4.30008401     3.88390002     3.44577799     1.10936406    -1.12009534    -0.55066700
O       1.53840902     8.18696198     4.11280702    -0.17125867     0.91859868    -0.08115176
O       1.48226199     3.92386000     3.52622499    -0.13698766    -0.43873012     0.37896043
O       2.95096101     6.16100302     3.25276302    -0.80293499    -1.13821211     0.29201855
O       2.89894500     1.46350297     3.29819802     0.18402189    -0.30596293     0.08576715
O       0.00157002     6.12021298     3.34846801     0.98334345    -0.28821177    -0.23013670
O       3.02103201     8.06475300     1.74376302    -0.64596394    -0.35902075    -0.83178432
O       3.01162002     2.87581398     1.04281600    -0.52434917     2.00442403    -0.40354765
O       5.92244700     7.79154799     1.45028201     0.72256202    -0.12727248     0.72251317
O       0.00707700     3.24149202     1.29015398     0.02507135    -0.20871478    -0.11247244
