# total energy = -19519.29152376 eV

CRYSTAL
PRIMVEC
        7.60600008     0.00000000     0.00000000
        0.00000000     7.60600008     0.00000000
       -1.89786986    -1.89786986     4.85670466
PRIMCOORD
23 1
Ti      3.81019802     6.57811402     1.20984398    -0.32500273     0.33217251     0.33315750
Ti      3.77239799     2.84309299     1.21483602     0.30698880     0.07541228     1.01160040
Ti      0.00734397     6.69410401     1.24708599     0.24169279    -0.11249275    -0.65612212
Ti     -0.02691898     2.90413702     1.13843399    -0.06717010    -0.37466052    -0.46225392
Ti      5.67853222     2.87764223     3.66397581    -0.77543909     0.05639383    -0.46984228
Ti      5.74274725    -0.94746276     3.62027784    -1.10234572    -0.26974045     0.61038423
Ti      1.95753820     2.85876124     3.64157383     0.97928625    -0.35943316    -0.43849846
Ti      1.89505321    -0.99087080     3.69968480     0.68275258     0.13059255    -0.94553228
O       3.72153199     4.74668099     0.72137099    -0.11476380    -0.26098327     1.31204986
O       3.76250401     0.92288200     0.71207498     0.12824693     0.23074220     1.05506003
O      -0.00556901     4.76962701     0.75804498     0.35988696     0.68077129     0.38297341
O      -0.03793899     0.97386902     0.84523900     0.20659053    -1.24707317    -0.76974204
O       5.71866021     4.69224621     3.92148383     0.61730513     1.35822123     1.03961438
O       5.72061224     0.95685021     4.05403982     0.43926645    -0.37819913    -0.70042353
O       1.88685123     4.68854822     4.00478379    -0.42836780     0.91252470     0.22958648
O       1.85527422     0.97541422     4.12973784    -0.29175810    -0.60590562    -0.86237172
O       3.83298820     2.95609525     3.32736680    -0.79575827    -0.72312020    -1.38739709
O       3.83018922    -1.00144175     3.27964782    -0.50132854     0.09413918    -0.63521158
O      -0.03969877    -1.10899279     3.23707080     1.05444014     0.64534353    -0.63413146
O       5.69241799     6.63358402     1.54463701     0.22860715     0.14809354     0.66241027
O       5.79254399     2.86239103     1.62397799    -1.17706201    -0.02525338     0.43016012
O       1.94272399     6.70837799     1.59488202    -0.81141835    -0.11950723     0.55051299
O       1.77207099     2.87489199     1.67334001     1.14535078    -0.18803796     0.34401707
