# total energy = -39032.98694730 eV

CRYSTAL
PRIMVEC
        5.93200024     0.00000000     0.00000000
        0.00000000     9.29399984     0.00000000
        0.00000000     0.00000000     9.29399984
PRIMCOORD
46 1
Ti      4.37521099     7.12483202     6.80449399     1.37159200     1.34069298     0.60363303
Ti      4.49638999     6.87739202     2.35645402    -0.89441616    -1.04994173     0.49015863
Ti      4.43871798     2.06473702     7.07910798     0.10196845     1.73872484    -0.22318804
Ti      4.48908501     2.63282399     1.95371299    -0.35552199    -0.52677270     0.80348983
Ti      1.61710498     6.75083102     7.11066203    -2.50067309     2.28414961     0.73327632
Ti      1.49426098     7.10411901     2.20450803     1.34718837    -0.90023251     1.12386663
Ti      1.50458300     2.36388298     6.65950598     1.31916410     0.83738367     0.58086564
Ti      1.53239402     2.04366000     2.68768702    -2.73465873     2.07584004    -0.96049071
Ti      2.93573901     4.74066101     4.78895701    -0.66930520    -0.82760962    -1.08819436
Ti      2.89500300     4.79749301     9.07599998     0.21355616    -1.57350543     0.22665697
Ti      3.00563402     9.18541097     4.56312802    -1.96044092     0.29119682     0.93341621
Ti      2.91204600     0.09150099     9.27219303    -1.04860064    -1.35575374    -0.18434534
Ti      5.85001100     4.66348400     4.78076201     0.45943934    -0.34988716    -1.22367329
Ti      5.89157099     4.72454698     9.20532301     0.38913789     0.41977337    -1.22904587
Ti      5.87179702     9.11542702     4.88717199     1.36787855    -0.23690719     0.62268542
Ti      5.84278900     0.05846001     9.11418499     1.92793394    -1.04023556    -0.61880177
O       4.34851998     5.65245701     5.72411301     0.77592400    -1.03067568    -1.29544901
O       4.43746102     5.47462901     0.98021799    -0.06032916    -0.71277999     0.16282828
O       4.33677002     0.81004400     5.58797899     1.02631431     0.30276654     0.01315325
O       4.66410102     1.01290902     0.80903100    -1.62031007     1.02250857     0.53235482
O       1.45226198     5.41530999     5.89750201    -0.46916017    -0.57191923    -1.28173500
O       1.53259299     5.58481398     0.75770001    -0.27659141     0.55697263     1.00003994
O       1.44442502     0.89131600     5.44416502    -0.02456613     0.94467559    -0.46888274
O       1.39432199     0.73371399     0.84673498     0.90292780     1.36798577     1.73620902
O       4.43512698     8.48685202     8.16589898     0.09817015     1.34016102     1.33759558
O       4.44234501     8.36792102     3.91925901     1.03580760    -1.60423990    -1.95617392
O       4.40449000     3.56037201     8.32035101     0.56165409     1.54193356     2.30013340
O       4.33568399     3.98786700     3.84745601     1.32734587    -1.21614125    -1.31625618
O       1.58398801     8.16410200     8.49278802    -0.10530985     1.62086029     0.63547306
O       1.46373798     8.35559299     3.82660299    -0.24517046     0.53957165    -1.56680591
O       1.45959802     3.83994000     8.26522201     0.23422938     0.05831110     0.36193715
O       1.44999599     3.61187000     4.05583897    -0.22762448    -0.33740805    -0.72735378
O       3.20358700     6.19911601     7.92977099    -0.19779118    -1.02698229     0.72719720
O       2.75606101     6.00598102     3.17703601     0.79018925     0.65916168     0.35543458
O       2.83535901     1.44662698     7.80012198    -0.01596296    -1.06683800     1.09197774
O       3.18606398     1.59688702     3.00503901     1.76823058    -1.18951746     0.90978056
O       5.82831299     6.21685800     8.00442002     0.12352741    -1.54581644     0.44869932
O       0.09933498     6.08636500     3.38675297    -0.62387713    -0.24492364    -0.19856740
O       0.16233602     1.47453500     7.83366298    -0.50900714    -1.65901470     0.70736036
O       2.76736598     7.99052800     6.11068699     0.76334616    -0.96588026    -0.26613164
O       3.22738098     8.07597902     1.48504700    -1.42992881    -0.91033027     0.31272185
O       3.16130500     3.28573902     6.07365898    -1.05849734    -0.99800286     0.29569214
O       0.11606598     7.75067101     6.10524102    -0.00824887     0.98259912    -0.72247589
O       5.83827798     7.79936299     1.55420501     0.43548487     1.00006334    -1.30057142
O       5.87436501     3.02889802     6.10674902    -1.22355322     1.97626735    -1.50331249
O       0.26673200     3.20624500     1.74735699    -0.08146466     0.03971585    -0.91518194
