# total energy = -4987.86283015 eV

CRYSTAL
PRIMVEC
        4.05795924     0.00000000     0.00000000
       -0.00000756     3.32014829     0.00000000
       -2.02900670    -1.66011208     4.75560895
PRIMCOORD
6 1
Ti     -0.00017613     2.49023496     1.18890236    -0.00190545    -0.00492778     6.34123698
Ti      2.02912111    -0.83019896     3.56670674     0.00190545     0.00492778    -6.34123698
O       0.00004186     0.83003008     0.77464989     0.00143776     0.00502317    -1.16525395
O       2.02890302     0.83000581     3.98095926    -0.00143776    -0.00502317     1.16525395
O      -0.00001963    -0.83002253     3.15245426    -0.00103513    -0.00027202     0.21612650
O       2.02896441     2.49005843     1.60315484     0.00103513     0.00027202    -0.21612650
