# total energy = -39481.10118285 eV

CRYSTAL
PRIMVEC
        5.93188753     0.00000000     0.00000000
        0.00000000     9.29428401    -0.00002646
        0.00000000    -0.00002646     9.29428401
PRIMCOORD
47 1
Ti      4.44891576     6.98058811     6.94079603     0.00000000    -0.02680119    -0.00661031
Ti      4.44891576     7.04960685     2.40245162     0.00000000    -0.01577655    -0.01577655
Ti      4.44891576     2.41155820     7.05871344     0.00000000     0.00095079     0.00095079
Ti      4.44891576     2.29366726     2.33345933     0.00000000    -0.00661031    -0.02680119
Ti      1.48297199     6.94015825     6.98021900     0.00000000    -0.00233353    -0.01743646
Ti      1.48297199     7.02481773     2.37766249     0.00000000     0.00554201     0.00554201
Ti      1.48297199     2.14121331     6.78836854     0.00000000    -0.00885385    -0.00885385
Ti      1.48297199     2.33309022     2.29302948     0.00000000    -0.01743646    -0.00233353
Ti      2.96321529     4.64995707     4.63554877     0.00025325    -0.01447223     0.00114337
Ti      3.08462791     4.76514695     0.11799172     0.00827587     0.00654166     0.00654166
Ti      3.00951246    -0.00543499     4.64172024     0.00849647     0.00509361     0.00509361
Ti      2.96321529    -0.01158001     0.00282829     0.00025325     0.00114337    -0.01447223
Ti      0.00272848     4.64995707     4.63554877    -0.00025325    -0.01447223     0.00114337
Ti     -0.11868414     4.76514695     0.11799172    -0.00827587     0.00654166     0.00654166
Ti     -0.04356870    -0.00543499     4.64172024    -0.00849647     0.00509361     0.00509361
Ti      0.00272848    -0.01158001     0.00282829    -0.00025325     0.00114337    -0.01447223
O       4.44891576     5.54642196     5.54249192     0.00000000    -0.00844736    -0.01013889
O       4.44891576     5.62798031     0.98082508     0.00000000     0.00058415     0.00058415
O       4.44891576     0.91911960     5.56627483     0.00000000     0.01366696     0.01366696
O       4.44891576     0.89536314     0.89929319     0.00000000    -0.01013889    -0.00844736
O       1.48297199     5.56998268     5.52009270     0.00000000    -0.02630060     0.00030030
O       1.48297199     5.45257590     0.80542067     0.00000000     0.00510750     0.00510750
O       1.48297199     0.87393296     5.52108819     0.00000000     0.03489914     0.03489914
O       1.48297199     0.87296393     0.92285391     0.00000000     0.00030030    -0.02630060
O       4.44891576     8.37949205     8.36068307     0.00000000    -0.01034149     0.01189033
O       4.44891576     8.38434368     3.73718845     0.00000000     0.02831197     0.02831197
O       4.44891576     3.76179965     8.40895488     0.00000000     0.00186199     0.00186199
O       4.44891576     3.71355430     3.73236328     0.00000000     0.01189033    -0.01034149
O       1.48297199     8.38486784     8.35694489     0.00000000    -0.00192164     0.01572256
O       1.48297199     8.36383010     3.71667487     0.00000000    -0.00706694    -0.00706694
O       1.48297199     3.70981612     3.73773906     0.00000000     0.01572256    -0.00192164
O       2.94139361     5.99008072     7.87576176    -0.00533273     0.00405077    -0.01244569
O       2.96777280     6.04738456     3.21239095    -0.01198546     0.00099219     0.01756604
O       2.92337048     1.48488741     7.91754336    -0.01217238     0.00893124     0.00110917
O       2.97377326     1.40427974     3.22033365     0.00747626     0.00622593    -0.01314117
O       0.02455015     5.99008072     7.87576176     0.00533273     0.00405077    -0.01244569
O      -0.00182903     6.04738456     3.21239095     0.01198546     0.00099219     0.01756604
O       0.04257329     1.48488741     7.91754336     0.01217238     0.00893124     0.00110917
O      -0.00782950     1.40427974     3.22033365    -0.00747626     0.00622593    -0.01314117
O       2.97377326     7.86746242     6.05140852     0.00747626    -0.01314117     0.00622593
O       2.96777280     7.85954619     1.40022933    -0.01198546     0.01756604     0.00099219
O       2.92337048     3.27038812     6.13204264    -0.01217238     0.00110917     0.00893124
O       2.94139361     3.22863298     1.34295194    -0.00533273    -0.01244569     0.00405077
O      -0.00782950     7.86746242     6.05140852    -0.00747626    -0.01314117     0.00622593
O      -0.00182903     7.85954619     1.40022933     0.01198546     0.01756604     0.00099219
O       0.04257329     3.27038812     6.13204264     0.01217238     0.00110917     0.00893124
O       0.02455015     3.22863298     1.34295194     0.00533273    -0.01244569     0.00405077
