# total energy = -19076.00398538 eV

CRYSTAL
PRIMVEC
        7.60600008     0.00000000     0.00000000
        0.00000000     7.60600008     0.00000000
       -1.89786986    -1.89786986     4.85670466
PRIMCOORD
22 1
Ti      3.88210701     6.59048597     1.20144900    -0.00411788     0.84784446    -1.11185778
Ti      3.74254101     2.84279602     1.16185802     0.05574796    -0.29800871     0.24914744
Ti      0.15461803     6.67544999     1.06324399    -0.39600531     0.73631023     1.78472369
Ti     -0.08180001     2.87372097     1.15418601    -0.35177692    -0.50225799     0.52802354
Ti      5.67613722     2.82161824     3.62664781    -0.33447442     0.60573207    -0.65415368
Ti      6.09913320    -0.88032075     3.63041883    -0.05881169    -0.51683126     1.78669213
Ti      1.82338023     2.85219420     3.66005784     0.36284604    -0.96289109    -0.79041345
Ti      1.48445723    -1.12768180     3.78446280     0.46214568     2.01919219    -0.99603931
O       3.79390798     4.77003998     0.87819801    -0.05206152     0.06048857    -0.72153949
O       4.09047500     0.96821000     0.65381098    -0.80378320    -0.07089305     1.50889410
O      -0.14021202     4.80944400     0.73613900     0.24257545     0.00065975     0.13654671
O       7.28311100     0.95600098     0.79986602     1.16132042     0.16510782    -0.24703091
O      -1.59043476     4.81327323     4.14307480     0.09106285     0.16463885    -2.78261728
O       5.71079521     0.98296225     4.00549781     0.42624433    -0.58369026    -0.13069179
O       2.13021122     4.75508824     4.05454783    -0.78169947    -0.69327817     0.41117688
O       1.62978523     0.99133325     4.06737684     0.14429113    -0.63821643    -0.00806375
O       3.72538323     2.73079020     3.25622479     0.24185142     0.18402601    -0.54754516
O      -0.02692078     2.87257922     3.14281581    -0.20361782     0.20482084     0.48210156
O       5.65296201     6.67568298     1.86519402     0.59659951    -0.41304762    -0.12796925
O       5.64947500     3.05645001     1.62520002    -0.44818176    -0.40128919     0.33594175
O       2.10790100     6.61306502     1.91172701    -1.22324238     0.40911074     0.28636289
O       1.79777900     2.91949401     1.53260903     0.87308679    -0.31752750     0.60831089
