# total energy = -19516.86941018 eV

CRYSTAL
PRIMVEC
        5.17600016     0.00000000     0.00000000
        0.00000000     5.50899976     0.00000000
        0.00000000     0.00000000     9.26300011
PRIMCOORD
23 1
Ti      1.86505601     3.19617799     3.42084199     0.33989791    -0.85460313     3.01375825
Ti      3.31254401     2.26353399     5.91027402     0.36936199     0.71379172    -2.87445429
Ti      4.42628602     1.99755400     1.49700302    -0.46502943     0.24029693    -0.78687150
Ti      0.88773802     3.38582803     7.72127500    -0.47303225     0.50379628     0.83399161
Ti      1.93976001     0.17487101     1.42964002     0.16658029     1.14843842    -1.56562809
Ti      3.20056598     5.29164899     7.91847401     0.73833008    -0.70004069     0.89273234
Ti      0.70636601     0.57458500     5.91838202    -1.02111169    -0.22015079    -3.55955789
Ti      4.52682101     4.83792300     3.37499698    -0.61371484     0.42047425     4.12865071
O       1.91987702     1.78623098     4.75368401    -1.79446201    -0.00097831    -0.20032963
O       3.53425902     3.54548202     4.43383600     0.16938023    -0.09436723     0.23548280
O       5.17444798     2.62640501     9.19524002     0.52700332     0.22949341    -0.20103360
O       3.46543401     0.69645298     0.32794400     0.36199346    -0.27989168    -0.36559944
O       1.60879801     4.82009703     8.87644602     0.37817522    -0.29619608     1.98531378
O       4.29333902     0.71631798     4.80544300    -0.26901102     0.54555333     0.38063165
O       0.94097097     4.76595902     4.42616399     0.97425408    -1.10364876     0.56485512
O       0.19938801     3.38196598     2.52342299     0.02586248    -0.77020715    -1.28252484
O       5.07024001     2.29571802     6.50377298     1.10180219    -0.14166938     0.86470422
O       2.67635501     1.87948699     2.28642900    -0.31391896    -0.36450183    -0.99684560
O       2.63310598     3.86024400     6.79123698    -0.85232873    -1.19933188     0.91983615
O       0.19401099     0.65359698     2.32911101     1.28666997     0.50294730    -1.90838326
O       5.04542001     4.88496998     7.10549900    -0.63600091    -0.08052467     0.82597877
O       2.29952799     1.05539000     7.06095598    -0.56616098     1.32500205     0.26661655
O       2.81605801     4.46546402     2.37335901     0.56545959     0.47631812    -1.17132356
