# total energy = -19960.37185926 eV

CRYSTAL
PRIMVEC
        5.93400000     0.00000000     0.00000000
        0.00000000     9.29699974     0.00000000
        0.00000000     0.00000000     4.64899994
PRIMCOORD
24 1
Ti      4.44609402     6.84066701     2.36412101     0.72086509     1.23934700     0.07407248
Ti      4.46212698     2.38200598     2.33860302     0.09333262    -0.81319729     0.41953117
Ti      1.45109297     6.88063799     2.21517799    -0.65774345     1.48580482     0.43863782
Ti      1.55649598     2.44954498     2.32648201     0.12817982    -0.80645252     0.56868529
Ti      3.00078702     4.72434097     4.52896000    -1.00069069    -0.31343970     0.86067942
Ti      2.98415598     9.21533399     0.06700897    -1.03149483    -0.63036917    -0.81957235
Ti      5.90014800     4.62558200     0.03594399     0.76784893     0.54689081    -0.37790525
Ti      5.90222000     0.06133000     0.05500300     0.72362954    -0.67892910    -0.58935131
O       4.44199300     5.65859103     0.84952999    -0.34486091    -0.65672735    -0.59165734
O       4.42360700     0.97674198     0.99469998     0.13194778    -1.06227660    -1.26250699
O       1.43560401     5.63491902     0.70813801     0.62171740    -0.13747334     0.76392028
O       1.48810501     0.87330899     0.92643500     0.05421867     0.03046193    -0.29826248
O       4.47319499     8.30593601     3.78635800    -0.32848375     0.85123807     0.82708666
O       4.41474402     3.73685998     3.76598102     0.20380834     0.09599449     0.06971472
O       1.50384999     8.23489999     3.63934002     0.41433780     1.82699599     2.16163239
O       1.40886399     3.68473300     3.81088002     0.65314426    -0.17024874    -0.61934710
O       2.91591402     5.90135998     3.08408602     0.61290340    -0.29145419     0.45999264
O       2.94167802     1.43064800     3.26742202    -0.05963959     0.59300691    -0.60775399
O       0.04704597     6.04234899     3.24604702    -0.70642114    -0.43230287    -0.74122900
O       5.93002900     1.44931298     3.22010400    -0.09465880     0.05333653     0.17836572
O       3.01252300     7.85550202     1.60804398     0.10783699     0.93390780    -1.88465223
O       3.01186000     3.46490801     1.51697200    -0.77629475    -1.33630385     0.06563180
O       0.02148798     7.83802801     1.41249002    -0.59383043     0.34066255    -0.17830453
O       5.88931802     3.31562801     1.37599500     0.36034744    -0.66847216     1.08259193
