# total energy = -19516.84617083 eV

CRYSTAL
PRIMVEC
        7.60600008     0.00000000     0.00000000
        0.00000000     7.60600008     0.00000000
       -1.89786986    -1.89786986     4.85670466
PRIMCOORD
23 1
Ti      3.79039901     6.63081299     1.27846599     1.52168714     0.21477744    -2.04302890
Ti      3.74067598     2.75480199     1.27070100    -0.80837467    -0.18550465     1.52023704
Ti      0.09576801     6.77806100     1.09808502    -1.18878058     0.21955352    -0.46005460
Ti     -0.14790700     2.95606302     1.23118702     1.32114051    -0.12084935    -0.77896896
Ti      5.61423422     2.83594920     3.66205379     0.06672169     0.77458085     1.61729931
Ti      5.73479721    -0.83859079     3.45435780     0.94204766    -0.02715009     1.19315326
Ti      1.98493524     2.68891323     3.83087683     1.40605816     1.71817118    -1.23713277
Ti      2.00728721    -1.02977078     3.61433983    -1.59169214    -1.14193584     0.91872801
O       4.18221603     4.58290899     0.93337500    -1.17163440     0.52433555    -0.13276230
O       3.48420499     0.88590802     0.64689299     0.29623876     0.27716168     0.90687187
O       7.08112901     4.90028601     0.75562199     1.50977085     0.03329348     0.87482409
O       0.08436302     1.19251199     0.57808302     0.77814852    -3.21540944     1.08626372
O       5.76721820     4.77993623     3.86905380     0.57613610     0.64164911     0.74832165
O       5.39032023     0.99959021     4.11132882     1.14237627     0.56819216    -0.36043692
O       2.11450625     4.62259924     4.14771981    -0.73385713     0.30836691     0.08426228
O       2.01649421     0.85440324     4.09350782    -0.23885274    -0.00246029    -0.33419391
O       3.88230524     2.75220420     3.23143580    -3.21276583     0.31887142    -1.12656475
O       3.84137423    -1.01412179     3.26396480    -0.44491285    -0.20753335    -0.67733861
O       0.12851921    -0.94380980     3.05631083    -0.92267542     0.32480835    -0.26768459
O       5.61649799    -0.37999298     1.59466199     1.03606086    -1.08104952     0.37299316
O       5.78563003     2.42193098     1.89500098     0.41513870     0.48880443    -2.14614303
O       1.95997400     6.50246898     1.48116702    -0.70530400    -0.17334153     0.27339784
O       1.76638398     3.01169003     1.75654303     0.00732456    -0.25733204    -0.03204290
