# total energy = -19929.10954725 eV

CRYSTAL
PRIMVEC
        6.16684103     0.00000000     0.00000000
        0.65473530     6.53064524     0.00000000
        0.00000000     0.00000000    11.05114384
PRIMCOORD
24 1
Ti      2.62317886     3.87005436     4.09989564    -0.03389512    -1.34476150     0.72229668
Ti      4.19839766     2.66059094     6.95124858     0.03389512     1.34476150    -0.72229668
Ti      5.58524220     2.66059315     1.42563232     0.07585323     0.32756304    -0.47517809
Ti      1.23633434     3.87005246     9.62551208    -0.07585323    -0.32756304     0.47517809
Ti      2.29581134     0.60473180     1.42567666    -0.03389512    -1.34476150    -0.72229668
Ti      4.52576519     5.92591375     9.62546775     0.03389512     1.34476150     0.72229668
Ti      0.90896673     0.60472939     6.95120431    -0.07585323    -0.32756304    -0.47517809
Ti      5.91260974     5.92591610     4.09993997     0.07585323     0.32756304     0.47517809
O       2.18238763     2.29955122     5.63931426     1.58381762     1.62659051    -0.27449699
O       4.63918890     4.23109413     5.41182996    -1.58381762    -1.62659051     0.27449699
O       1.36215856     2.29957764     0.11377773    -1.14091768     0.84487381     0.37235681
O       5.45941803     4.23106778    10.93736624     1.14091768    -0.84487381    -0.37235681
O       4.31182137     0.96577132     0.11374189    -1.58381762    -1.62659051    -0.27449699
O       2.50975516     5.56487404    10.93740207     1.58381762     1.62659051     0.27449699
O       5.13205050     0.96574497     5.63935015     1.14091768    -0.84487381     0.37235681
O       1.68952596     5.56490039     5.41179413    -1.14091768     0.84487381    -0.37235681
O       0.62230270     3.97230879     2.98518973     0.44655091     0.42812149     0.83610403
O       6.19927376     2.55833657     8.06595449    -0.44655091    -0.42812149    -0.83610403
O       3.56397054     2.55827575     2.54041752     0.56802400     0.89479000     0.13782018
O       3.25760598     3.97236954     8.51072657    -0.56802400    -0.89479000    -0.13782018
O       0.29493517     0.70698597     2.54038219     0.44655091     0.42812149    -0.83610403
O       6.52664129     5.82365933     8.51076184    -0.44655091    -0.42812149     0.83610403
O       2.93023845     0.70704679     8.06598976    -0.56802400    -0.89479000     0.13782018
O       3.89133808     5.82359857     2.98515446     0.56802400     0.89479000    -0.13782018
