# total energy = -19935.36109598 eV

CRYSTAL
PRIMVEC
        4.86033195     0.00000000     0.00000000
        1.75672674     4.86543179     0.00000000
        0.00000000     0.00000000     8.83940646
PRIMCOORD
24 1
Ti      2.80267128     2.88325030     3.27935676     3.83990826    -2.94179639     1.13515455
Ti      3.81438759     1.98218136     5.56004979    -3.83990826     2.94179639    -1.13515455
Ti      4.90741523     1.98218302     1.14031122    -7.52850369     1.29017490     2.48090953
Ti      1.70964367     2.88324879     7.69909543     7.52850369    -1.29017490    -2.48090953
Ti      1.92430803     0.45053453     1.14034666     3.84020779    -2.94289400    -1.13072351
Ti      4.69275086     4.41489723     7.69905999    -3.84020779     2.94289400     1.13072351
Ti      0.83128032     0.45053274     5.56001435     7.52784086    -1.29152165     2.47491885
Ti      5.78577858     4.41489907     3.27939220    -7.52784086     1.29152165    -2.47491885
O       2.15689914     1.71320119     4.51068146    -1.64467900    -0.34613823    -1.12915899
O       4.46015973     3.15223047     4.32872510     1.64467900     0.34613823     1.12915899
O       1.51044912     1.71322082     0.09100667     1.80822436    -0.68637656    -1.18991778
O       5.10660981     3.15221089     8.74839964    -1.80822436     0.68637656     1.18991778
O       3.58179646     0.71951461     0.09097798     1.64485177     0.34559496    -1.12926724
O       3.03526241     4.14591705     8.74842833    -1.64485177    -0.34559496     1.12926724
O       4.22824653     0.71949497     4.51071014    -1.80762658     0.68634313    -1.18966016
O       2.38881229     4.14593670     4.32869641     1.80762658    -0.68634313     1.18966016
O       1.24512786     2.95943135     2.38774421    -0.32601215    -2.77835568    -2.85181263
O       5.37193101     1.90600032     6.45166234     0.32601215     2.77835568     2.85181263
O       3.29493239     1.90595500     2.03198716     2.06038745    -2.97259642    -3.56467619
O       3.32212648     2.95947667     6.80741925    -2.06038745     2.97259642     3.56467619
O       0.36676459     0.52671548     2.03195892    -0.32536397    -2.77853514     2.85263462
O       6.25029428     4.33871618     6.80744749     0.32536397     2.77853514    -2.85263462
O       2.44376321     0.52676080     6.45169049    -2.06134801     2.97302837    -3.56501686
O       4.17329566     4.33867086     2.38771602     2.06134801    -2.97302837     3.56501686
