# total energy = -19073.62531575 eV

CRYSTAL
PRIMVEC
        5.17600016     0.00000000     0.00000000
        0.00000000     5.50899976     0.00000000
        0.00000000     0.00000000     9.26300011
PRIMCOORD
22 1
Ti      1.80475203     3.50088598     3.25676000     0.79791388    -0.34297192    -0.16107119
Ti      3.37896200     2.11020202     5.88984302     0.35412563     0.79952879    -1.30646388
Ti      4.57205699     2.25959998     1.29285998    -0.75023764     0.68284463    -0.70345717
Ti      0.77549698     3.05832700     7.99039200    -1.46893297     0.66944866     1.50324076
Ti      1.97936200     0.59269000     1.18974598    -0.67550721     0.23546583    -0.58508405
Ti      3.26025299     4.98670298     8.05103699     0.56185901    -1.31027065     3.15385438
Ti      0.91880199     0.14737798     6.15706800    -1.12131558     0.10365201    -1.01754788
Ti      4.16771599     5.08932098     3.46936998     1.42212757     0.37266843     1.44368345
O       3.40280599     3.53269800     4.50690299     0.41846391     0.04768935     0.52605484
O       1.03506398     1.83079601     0.06043802    -0.48408440     0.50605577    -0.37744863
O       4.34393402     3.55309201     8.98035902     0.14669075     0.03329117    -0.90400175
O       3.58582501     0.75662298     0.28551600     0.93302514     0.51862590    -1.31399078
O       1.74214702     4.71508699     9.24333397    -0.45654890    -0.62800195    -1.17406821
O       3.17538900     0.83627701     4.52687600     1.58661087     0.09454953     0.26254547
O       0.90195098     4.83811498     4.46208798    -1.24253337     0.07614248     1.02868024
O       0.39221898     3.74149599     2.13404897    -1.97173372    -0.83400293     0.69057748
O       0.01823301     1.96877798     6.50951699    -0.12290418    -0.94316584    -0.33145646
O       2.82976598     2.34127002     2.13267100     0.25632391    -1.32502031    -0.23346525
O       2.32256001     3.50720202     7.12114900     1.11249515     0.21069555    -1.94896480
O       0.20186101     0.90032000     2.21120201     0.13790580    -0.47980942     1.54714725
O       2.39372001     0.80269500     7.03156701     0.74094284     0.73798427    -0.38261526
O       2.79703001     4.75756002     2.31316097    -0.17468621     0.77460065     0.28385169
