# total energy = -19518.64704647 eV

CRYSTAL
PRIMVEC
        7.60600008     0.00000000     0.00000000
        0.00000000     7.60600008     0.00000000
       -1.89786986    -1.89786986     4.85670466
PRIMCOORD
23 1
Ti      3.77968402     6.62535801     1.12913100     0.58979714     0.84205048     1.31933894
Ti      3.83883799     2.79200098     1.14886302    -0.18370976    -0.80587402     2.25473952
Ti      0.00274902     6.75679898     1.21048502    -0.71297591     0.72182385    -0.59374636
Ti     -0.02498198     2.91267599     1.09891303     0.52387532    -1.19120719     1.25378247
Ti      5.62044121     2.92153225     3.74244883    -1.10928384     0.17476129    -0.29529131
Ti      5.72367120    -0.93826577     3.55827181    -1.57764980     0.13910805     0.43763483
Ti      1.97259525     2.76342922     3.77666882     1.39822067     0.18388074    -1.80369253
Ti      1.87101624    -1.01250976     3.57311984     1.16154051     0.33099880     0.47288390
O       3.95549601     4.64296801     0.82546597    -0.81678450     1.00458874     1.13524197
O       4.00360802     0.92897802     0.69168102    -0.46694439    -0.72190896    -0.00682911
O       0.03354502     4.81807398     0.87950698     0.54159125     0.20207490    -0.16213665
O      -0.12895002     1.02055399     0.75428401     0.17438796    -0.79648023     0.08401057
O       5.54322324     4.83552021     3.99217779     0.88201110    -1.02207071     0.65987336
O       5.69136821     0.97501120     4.10990782     0.53708514     0.49631051    -0.83007556
O       1.79885223     4.63561621     4.05307582    -0.45784499     1.15077195    -0.54608169
O       1.96105321     0.92976221     4.13401782    -0.92104200    -1.29238297    -0.77708048
O       3.83611421     2.63705725     3.37793783    -0.51980758     0.61921289    -0.59926729
O       3.76653020    -0.99445180     3.14712183    -0.60499443     0.06285090    -0.29063401
O      -0.06400478    -0.88625378     3.23260279     1.47229546    -0.12416042    -0.26190629
O       5.70640600     6.61113997     1.57558198    -0.28426101     0.21100614     0.16484685
O       5.76728700     2.78732702     1.84815800     0.60554104     0.48918161    -0.91496108
O       1.87736202    -0.60963802     1.56154100     0.13881545    -1.17231703     0.36772265
O       1.85548002     2.70288197     1.83646699    -0.36986310     0.49778067    -1.06837244
