# total energy = -19958.67601118 eV

CRYSTAL
PRIMVEC
        7.60600008     0.00000000     0.00000000
        0.00000000     7.60600008     0.00000000
       -1.89786986    -1.89786986     4.85670466
PRIMCOORD
24 1
Ti      3.75599899     6.42312901     1.15227198     1.05499884     1.23182190    -0.91912833
Ti      3.79346702     2.55923400     1.27658799     1.46735714     0.95660397    -0.04959094
Ti     -0.02299497     6.74247600     1.19779302    -0.03212929    -0.15307711    -1.59526777
Ti      0.02184401     2.79788702     1.25027502    -1.90001920     1.10261569     1.27964880
Ti      5.68414420     2.86703524     3.79262282    -0.83125699     4.66861317    -1.92005813
Ti      5.72594524    -0.57622375     3.61111683    -0.48591914    -2.94341696    -1.42109681
Ti      1.74318220     2.71052721     3.67982282     2.24236326     1.11796029    -0.14482207
Ti      1.96297624    -0.85205575     3.51857383     0.01540914    -1.32482336     1.19036721
O       4.00521100     4.53550000     0.77104200    -0.93585490     1.83360527     0.30855152
O       3.93780202     0.87395099     0.66063700    -0.42457259    -2.03363357    -0.28331690
O       0.35728497     4.93685999     0.84592402    -0.96786720    -2.14742472     0.70322037
O      -0.05416701     1.12402402     0.65086002     0.90207728    -1.38072482     0.07205802
O       5.64896021     4.81013923     4.09811881    -0.16771441     0.78688719     0.19890704
O       5.33466724     1.16436521     4.08067379     0.59383198    -2.65286677     1.49138900
O       1.95954621     4.59565523     3.99571481    -0.57480118     0.24132872     0.74076158
O       1.88332823     0.83739924     4.11406583    -0.15292027     1.47157273    -0.77791223
O       3.86271923     2.93359225     3.09191880    -0.26825306    -0.04662363     1.49316203
O       3.79129025    -0.83408278     3.23893583     0.40466633    -0.60388782    -1.03592099
O      -0.07612379     2.92297822     3.41761782     0.91762397    -0.58506040    -1.79838808
O       0.01836224    -0.67036179     3.20624183    -1.00961294    -0.25045614    -0.21269047
O       5.66725397     6.78245899     1.62586800     0.51016388    -0.42754299     0.20390218
O       5.72535197     2.47204099     1.54803401     2.17571587     1.61104124     1.24015510
O       1.93313403     6.99318002     1.47738202     0.30611463    -1.17942999     0.86573935
O       1.96272202     2.45736098     1.68933000    -2.83940089     0.70691788     0.37033130
