# total energy = -19961.72287800 eV

CRYSTAL
PRIMVEC
        7.60600008     0.00000000     0.00000000
        0.00000000     7.60600008     0.00000000
       -1.89786986    -1.89786986     4.85670466
PRIMCOORD
24 1
Ti      3.81377002     6.57459499     1.23584103     0.64547774     0.38228307    -0.08439418
Ti      3.78409799     2.80170598     1.16891698     0.56629957    -0.28171871     0.36243672
Ti      0.01513701     6.78322799     1.24373000    -0.76601033    -1.60235734    -0.70839986
Ti      0.01093698     2.85282599     1.24081497    -0.49708030     2.29179299    -0.28217122
Ti      5.66950123     2.89852521     3.62280079    -0.17266455     0.14638684     0.97045039
Ti      5.70521122    -0.87653475     3.65268783    -0.29988587    -0.09377588    -0.81545061
Ti      1.89868120     2.75149320     3.62401483     0.50852763     1.06302582     0.12023254
Ti      1.90548822    -1.04808677     3.61338684     0.27308751    -0.77610346     0.42211667
O       3.83754902     4.74501000     0.82736000    -0.26874980    -1.69065342    -0.48349433
O       3.83603197     0.76939800     0.77728100    -0.16629670     2.49060105    -0.66984641
O      -0.01721101     4.79572900     0.75588499     0.23504854    -0.07932679     0.22507600
O      -0.08339500     1.07513101     0.78564703     0.35403847    -1.31939884     0.45843172
O       5.56850722     4.81904423     4.09096983     0.37492200     0.17663074     0.27556888
O       5.67994724     0.99841422     3.98971484     0.56969445    -0.07363745     0.62883345
O       2.02227425     4.65128620     4.00912680    -0.17892879     0.67208816    -0.14570190
O       1.83877124     0.87791622     4.01616280    -0.09267236     0.10568806     0.97886947
O       3.82807622     2.68269021     3.30019381    -1.12787396     0.36246732    -0.98479150
O       3.82018222    -0.86645880     3.17208582    -0.67588465    -0.30689856     0.43193418
O       0.03040520     3.02349825     3.18775381    -0.42119545    -0.62458290    -0.03001713
O      -0.03459380    -0.93141477     3.26410382     1.24026771    -0.18134923    -0.15635295
O       5.75065400     6.69414502     1.67635801    -0.05195790    -0.12902443    -0.24112817
O       5.63447102     2.86745298     1.64713298     0.42838991    -0.00664913    -0.43517737
O       1.92368202     6.66991199     1.62111000    -0.92183956    -0.10708494     0.16863512
O       1.90833001     2.86661301     1.62146799     0.44528695    -0.41840297    -0.00565900
