# total energy = -19517.38884498 eV

CRYSTAL
PRIMVEC
        5.17600016     0.00000000     0.00000000
        0.00000000     5.50899976     0.00000000
        0.00000000     0.00000000     9.26300011
PRIMCOORD
23 1
Ti      1.83823799     3.21272102     3.38591899     0.38318476    -0.23990535     2.27659314
Ti      3.29624398     2.25846601     5.92818699     0.92947008     0.52862158    -3.13154850
Ti      4.34076102     2.04381002     1.41014201     1.27518382     0.08513054     0.05562609
Ti      0.95643798     3.31871401     7.73107801    -2.60991673    -0.18883320     1.67742201
Ti      2.06355801     0.20273998     1.33271798    -0.10114132     0.07000577    -0.16704541
Ti      3.25811099     5.21545498     7.94942300     0.55826229     0.70333916    -0.37799910
Ti      0.69681700     0.60098401     5.90458002    -0.84230631    -0.06789129    -2.39175752
Ti      4.48972500     4.92905399     3.31952799     0.73567491    -0.27699353     3.00373738
O       1.68977800     1.90893898     4.75122598    -0.94505688    -0.12881360     0.83458168
O       3.55588802     3.53493298     4.49649402    -0.28903067     0.26702510    -0.08497036
O       0.02381901     2.92113298     0.10504301    -0.00445649    -0.29196430    -0.92993596
O       3.50445702     0.85332102     0.13453400    -0.30054227    -0.00500954     0.37553135
O       1.81644700     4.60385398     9.04206998     0.65147819     0.11975637     0.18240184
O       4.14978302     0.74836400     5.00975198     0.36292266    -0.13673389    -0.93712528
O       0.89585999     4.77841299     4.44761699     0.62728153    -0.10803342     0.06186462
O       0.14009999     3.36345298     2.54552397     0.55702662    -0.44760197     0.21279023
O       4.84163200     2.04007397     6.96458698     1.32560600     0.36161088     0.00622490
O       2.67293202     1.79775397     2.34311701    -0.27945768     0.18338940    -0.60397498
O       2.49557001     3.78120900     6.87740498     0.99461003     0.06436425    -0.52638009
O       0.25609999     0.56141298     1.97483600     0.07920415     0.39211755    -0.12110235
O       5.16437900     4.81989700     7.16204403    -1.06607413    -0.33966445     0.68293796
O       2.28912098     1.13866900     7.10839201    -1.13021340    -0.84964809     0.46228426
O       2.97570698     4.40338000     2.25297600    -0.91170915     0.30573128    -0.56015488
