# total energy = -19516.62927001 eV

CRYSTAL
PRIMVEC
        5.17600016     0.00000000     0.00000000
        0.00000000     5.50899976     0.00000000
        0.00000000     0.00000000     9.26300011
PRIMCOORD
23 1
Ti      1.79273198     3.25627300     3.48184999     0.12906660    -0.35580096     1.08863274
Ti      3.34997801     2.29308801     5.78617899    -0.07840993    -1.39372124    -1.91768911
Ti      4.44795201     2.00533100     1.46433299    -0.06616788    -0.60759253    -0.36735550
Ti      0.76575499     3.42223600     7.77094802    -0.34278551     0.76316052     1.19223820
Ti      2.11235599     0.31867499     1.32560499     1.75797598    -2.07360858    -0.91274016
Ti      3.18138399     5.04456401     7.74765798    -0.97994291     2.03013404     2.15573813
Ti      0.71407099     0.61345502     5.98258498    -0.87490971    -0.62944485    -2.63738178
Ti      4.57254198     4.99181102     3.42008500    -1.14524639     0.99439894     1.83060865
O       1.69564399     1.93683901     4.82255998    -1.41935257     0.13582089    -0.81472942
O       3.36274902     3.55685700     4.49676301     1.58166252     1.48864177    -0.19281507
O       4.86501200     2.95077903     0.02353299     1.26617930     0.89739864    -0.95101310
O       3.66100998     0.73535000     0.18648201    -0.31717860     0.18483128     0.14235304
O       2.09111000     4.46395301     9.13047798    -2.25638529    -0.44162133     0.08550695
O       4.24904699     0.83509700     4.78676399    -0.26885110    -0.33677736    -0.70425678
O       0.95153700     4.84380501     4.46746601     0.63845349    -1.39932110     0.43313360
O       5.16952901     3.40987802     2.65897201     1.55352770    -1.85233293    -0.61330758
O       4.92857000     2.06100500     6.78001298     1.62154394     0.64108090     1.26887459
O       2.80518702     1.70488199     2.40265998    -0.00173704     1.70554114    -0.37438875
O       2.60688398     3.47330298     6.97227900    -1.47700984    -0.31061046     0.76729640
O       0.46749497     0.51745301     2.16086699    -1.79113191     1.47691394    -0.85330806
O       4.83920599     4.80423901     6.98948700     1.90578696    -0.78206817     0.55517157
O       2.30456602     0.92213099     6.86579398     0.85216932    -0.43532778     1.40433141
O       2.83536600     4.55009598     2.41864299    -0.28725686     0.30030496    -0.58490022
