# total energy = -19517.97373258 eV

CRYSTAL
PRIMVEC
        7.60600008     0.00000000     0.00000000
        0.00000000     7.60600008     0.00000000
       -1.89786986    -1.89786986     4.85670466
PRIMCOORD
23 1
Ti      3.83513798     6.49208203     1.21766702    -1.42920453     1.35174770     0.87752298
Ti      3.82713402     2.83891598     1.07481498     0.17380278    -1.04312779     1.92282130
Ti     -0.05216402     6.66651499     1.28076198     1.12081088    -0.43027222    -0.90202920
Ti      0.03146901     2.91518402     1.11037802    -0.14022905     0.30088500     0.66125738
Ti      5.71475621     2.91619724     3.61171580    -2.20271786     0.47410363     0.35895724
Ti      5.63023623    -0.91915675     3.64587880    -0.28571420    -0.00951797     0.91730156
Ti      1.83953723     2.87847023     3.62204280     2.69649866    -0.45967691    -1.29491113
Ti      1.84013721    -1.10036879     3.70387583     0.71975823     1.62173883    -0.39774852
O       4.04450998     4.72729997     0.63193702    -0.53277082    -0.24618348     1.41936311
O       3.78637298     0.91575298     0.83545499    -0.17182303     0.41964919     0.06120770
O      -0.19985998     4.73790701     0.81494402     0.48768137     1.10961526     0.77703909
O      -0.08293398     0.97046398     0.75506402     0.32490811    -0.43789734    -0.00017998
O      -1.57808578     4.68612025     4.18996482    -0.35842914     1.07913791    -0.74707107
O       5.56904323     1.04050022     4.07975281     0.88936857    -1.63254004    -1.42891991
O       1.88195422     4.74644021     4.15203281    -0.80281132    -1.31637240    -0.86775407
O       2.02531522     0.87311420     4.07373480    -0.78618142     1.04077446    -0.84574130
O       3.79909323     3.09427221     3.32316079     0.09614747    -0.56758357    -1.16380642
O       3.72537022    -1.04470675     3.30078580     2.13273009    -0.34628479    -0.36213924
O       0.03311522    -0.98947779     3.27161379    -1.33148638     0.50371915    -0.67117130
O       5.64917098     6.81944002     1.59710102     1.01704857    -0.56513948     1.08540009
O       5.78338901     2.91760998     1.75075700     0.14537151    -0.44890347    -0.45897782
O       1.96124498     6.48184202     1.59499601    -0.93611947     0.12546088     0.61120544
O       1.95201899     3.06241802     1.56075797    -0.82663903    -0.52333307     0.44837356
