# total energy = -19961.60217628 eV

CRYSTAL
PRIMVEC
        7.60600008     0.00000000     0.00000000
        0.00000000     7.60600008     0.00000000
       -1.89786986    -1.89786986     4.85670466
PRIMCOORD
24 1
Ti      3.76074900     6.70657402     1.26124497     1.47303337    -0.11233231    -0.60420150
Ti      3.83400401     2.89821701     1.18346698    -0.68845529     0.26635636     0.03259414
Ti      0.05126902     6.55622900     1.16480602    -1.28005375     0.63650099     0.76294558
Ti     -0.01669999     2.81799200     1.21470098     1.21124895    -0.69178333    -0.65686465
Ti      5.71371023     2.77623922     3.60468679    -0.26104831    -0.69413923     0.23498349
Ti      5.65202325    -1.03997178     3.61964383     0.85931339     0.38909958     0.14110579
Ti      1.90148621     2.94320523     3.60961079     0.47731468    -0.19905951     0.05988873
Ti      1.88089825    -0.88925178     3.63188481    -0.64191574     0.25289046     0.89226697
O       3.78095399     4.83604902     0.82373900    -0.12691536    -0.36663276    -0.18685216
O       3.77394599     1.04360300     0.92896997     0.29255385    -0.71033539    -1.01053956
O       0.02326200     4.65930101     0.79060399     0.39888881     0.98664192     0.21991733
O       0.01747200     0.82719601     0.68689001     0.05849236    -0.17598693     0.95018289
O       5.71776320     4.61448124     4.05076083     0.34068775     0.80273779    -0.04985448
O       5.58073222     0.88552024     4.14931279     0.50953241     0.42154332    -1.20998988
O       1.79745721     4.81377823     4.04937280     0.20057466     0.73738289     0.44258575
O       1.91675324     1.03361822     4.02584484     0.10490850    -0.71510684     0.93653342
O       3.83785621     2.96866723     3.35437982     0.05330542    -0.28634361    -1.36467624
O       3.81903723    -0.84329078     3.27467381    -0.92357068    -0.55359677    -0.26553361
O       0.07618422     2.78587522     3.18155180    -1.12048306     0.01075313     0.53263456
O      -0.05484478    -0.90176677     3.21506480     0.87956906    -0.08956955    -0.25161056
O       5.67492001     6.53250402     1.62706499     0.34140997     0.29678049    -0.24298425
O       5.79327801     2.77245301     1.58579197    -1.87291925     0.11100176     0.84820288
O       1.93442199     6.76266501     1.73753000    -1.00610364    -0.49553095    -0.67070953
O       1.93043803     2.85352598     1.59632498     0.72063189     0.17872825     0.45997438
