# total energy = -4985.43370216 eV

CRYSTAL
PRIMVEC
        3.27536139     0.00000000     0.00000000
        0.00000000     3.42133349     0.00000000
        0.00000000    -0.00005980     4.45486092
PRIMCOORD
6 1
Ti      1.63768055     1.71063680     2.22743041     0.00000000     0.00000000     0.00000000
Ti      0.00000000     0.00000000     0.00000000     0.00000000     0.00000000     0.00000000
O       1.63768055     0.66675584     0.86818676     0.00000000    -1.77399525    -1.92346998
O       1.63768055     2.75451775     3.58667401     0.00000000     1.77399525     1.92346998
O       0.00000000     1.04385703     3.09561815     0.00000000     1.77352782    -1.92330183
O       0.00000000     2.37741657     1.35924268     0.00000000    -1.77352782     1.92330183
