# total energy = -19958.52111316 eV

CRYSTAL
PRIMVEC
        7.60600008     0.00000000     0.00000000
        0.00000000     7.60600008     0.00000000
       -1.89786986    -1.89786986     4.85670466
PRIMCOORD
24 1
Ti      3.85449899     6.58531200     1.24124202     1.62669901     0.03244965    -2.04468829
Ti      3.67958501     2.78804601     1.23888501     3.14732943    -0.75794272    -0.63470688
Ti     -0.01264702     6.83336801     1.29660402    -1.51630222    -2.83191743    -1.63654376
Ti      0.08220102     2.89119398     1.23211001    -1.85375295     4.33614241     0.53440219
Ti      5.69440722     2.95433721     3.55696379    -0.89280870     1.08681908    -0.18890365
Ti      5.70633324    -0.77596176     3.70755583    -1.17039050    -1.18292001    -1.56114716
Ti      1.88095524     2.64079324     3.58940579    -0.26868681     1.26250082     2.19275149
Ti      1.90427222    -1.05843975     3.53645283     1.32765620    -0.74725387     2.27930437
O       4.01257498     4.55674101     0.78918600    -1.84180246     0.87887615    -0.68256129
O       3.94922500     0.82642601     0.84689400    -0.76247404     0.38203059    -1.23635012
O      -0.06364701     4.84751301     1.03545298     1.00693462    -1.10451290    -1.36954206
O      -0.16523200     1.13672697     0.94029998     0.55269457    -2.06442203    -1.38167510
O       5.33161621     4.76129120     4.13751383     1.67010490     0.69217311     0.30602310
O       5.53509021     1.06564222     3.89368980     1.17679255    -0.44989540     1.55236145
O       2.19521223     4.52560121     4.07040579    -1.36690333     2.34160582     0.05541604
O       2.04802423     0.80803525     3.84978683    -1.39368113    -1.00915888     1.16731572
O       3.56911322     2.66042323     3.20051984     3.79444754     0.42173924    -1.12636009
O       3.95717224    -0.85427576     3.11842079    -1.10771573    -0.49115468     1.29944708
O      -0.00166675     3.03953120     3.19824781    -0.91682333    -0.62158910    -0.24262095
O       0.01293023    -0.90557976     3.19385781    -0.04462665    -0.03339170     1.54858166
O       5.75992201     6.58401800     1.61526498     0.62195317     0.59278374     1.00401821
O       5.52274599     2.94539899     1.66398299     2.39852981    -0.56926096     1.62277062
O       1.99778398     6.60983598     1.70404700    -1.20523411    -0.11901538    -1.32609374
O       1.92236299     2.76933002     1.49367603    -2.98194033    -0.04468579    -0.13119881
