# total energy = -19949.44014619 eV

CRYSTAL
PRIMVEC
        5.17559672     0.00000000     0.00000000
        1.87067659     5.18102737     0.00000000
        0.00000000     0.00000000     9.41277336
PRIMCOORD
24 1
Ti      2.98446617     3.07027194     3.49207180     2.21812572    -2.91905961     1.14959001
Ti      4.06180733     2.11075529     5.92070167    -2.21812572     2.91905961    -1.14959001
Ti      5.22573405     2.11075705     1.21427735    -4.53817437     0.15541656     1.43687568
Ti      1.82053947     3.07027033     8.19849622     4.53817437    -0.15541656    -1.43687568
Ti      2.04912801     0.47975839     1.21431509     2.21779224    -2.91827156    -1.14703871
Ti      4.99714551     4.70126894     8.19845848    -2.21779224     2.91827156     1.14703871
Ti      0.88520120     0.47975648     5.92066393     4.53780696    -0.15633496     1.43631980
Ti      6.16107232     4.70127090     3.49210954    -4.53780696     0.15633496    -1.43631980
O       2.29680611     1.82432775     4.80326620     0.11150776     0.96886402    -1.01688788
O       4.74946738     3.35669948     4.60950727    -0.11150776    -0.96886402     1.01688788
O       1.60842419     1.82434865     0.09690980     0.84345945    -0.70137278     0.11798051
O       5.43784936     3.35667862     9.31586340    -0.84345945     0.70137278    -0.11798051
O       3.81412920     0.76618583     0.09687926    -0.11159440    -0.96881646    -1.01666445
O       3.23214430     4.41484140     9.31589395     0.11159440     0.96881646     1.01666445
O       4.50251117     0.76616492     4.80329675    -0.84401969     0.70071843     0.11746629
O       2.54376227     4.41486232     4.60947672     0.84401969    -0.70071843    -0.11746629
O       1.32589291     3.15139446     2.54262492     0.09759063    -0.35035844    -0.44962852
O       5.72038059     2.02963277     6.87014855    -0.09759063     0.35035844     0.44962852
O       3.50865774     2.02958451     2.16379174     1.66127624    -0.73537049    -1.49724134
O       3.53761576     3.15144272     7.24898158    -1.66127624     0.73537049     1.49724134
O       0.39055473     0.56088081     2.16376166     0.09781354    -0.35071943     0.44939943
O       6.65571877     4.62014642     7.24901165    -0.09781354     0.35071943    -0.44939943
O       2.60227758     0.56092907     6.87017852    -1.66154081     0.73584306    -1.49770877
O       4.44399592     4.62009816     2.54259489     1.66154081    -0.73584306     1.49770877
