# total energy = -4986.25485760 eV

CRYSTAL
PRIMVEC
        3.55206803     0.00000000     0.00000000
        1.20627447     3.34097129     0.00000000
       -2.37920365    -1.67050840     4.60644194
PRIMCOORD
6 1
Ti      0.90460345     2.50585662     1.15161053     0.00094977    -0.00094977     0.00000000
Ti      1.47453478    -0.83539416     3.45483151    -0.00094977     0.00094977     0.00000000
O       0.30160562     0.83523822     0.75035180     0.00045277     0.00100453    -0.62275844
O       2.07753244     0.83522412     3.85609034    -0.00045277    -0.00100453     0.62275844
O      -0.30157681    -0.83521804     3.05357277     0.00100453     0.00045277    -0.62275844
O       2.68071482     2.50568034     1.55286937    -0.00100453    -0.00045277     0.62275844
