# total energy = -19923.99945700 eV

CRYSTAL
PRIMVEC
        7.44143822     0.00000000     0.00000000
        0.00002491     3.81330470     0.00000000
        0.00000000     0.00000000    11.24283066
PRIMCOORD
24 1
Ti      2.69717833     2.25976091     4.17100999    -0.00820594     0.25607837     1.74700380
Ti      4.74428497     1.55354396     7.07182079     0.00820594    -0.25607837    -1.74700380
Ti      6.41777006     1.55354532     1.45036048    -0.00830827    -0.25596473    -1.74684285
Ti      1.02369330     2.25975972     9.79247046     0.00830827     0.25596473     1.74684285
Ti      2.69716593     0.35310861     1.45040557    -0.00820594     0.25607837    -1.74700380
Ti      4.74429743     3.46019637     9.79242538     0.00820594    -0.25607837     1.74700380
Ti      1.02368084     0.35310715     7.07177570     0.00830827     0.25596473    -1.74684285
Ti      6.41778246     3.46019784     4.17105507    -0.00830827    -0.25596473     1.74684285
O       2.35527104     1.34272946     5.73713044     2.56919250     0.30528956    -0.49949380
O       5.08619231     2.47057540     5.50570033    -2.56919250    -0.30528956     0.49949380
O       1.36550931     1.34274481     0.11575123    -2.56897267     0.30547442    -0.50079477
O       6.07595410     2.47056006    11.12707920     2.56897267    -0.30547442     0.50079477
O       5.08617986     0.56392305     0.11571477    -2.56919250    -0.30528956    -0.49949380
O       2.35528344     3.24938181    11.12711572     2.56919250     0.30528956     0.49949380
O       6.07594170     0.56390771     5.73716690     2.56897267    -0.30547442    -0.50079477
O       1.36552154     3.24939722     5.50566387    -2.56897267     0.30547442     0.50079477
O       0.27037992     2.31946812     3.03696904    -1.09456813     0.35116886     0.53381752
O       7.17108338     1.49383681     8.20586174     1.09456813    -0.35116886    -0.53381752
O       3.99110834     1.49380121     2.58448208    -1.09293676    -0.35106498    -0.53414817
O       3.45035496     2.31950372     8.65834852     1.09293676     0.35106498     0.53414817
O       0.27036752     0.41281571     2.58444618    -1.09456813     0.35116886    -0.53381752
O       7.17109583     3.40048916     8.65838442     1.09456813    -0.35116886     0.53381752
O       3.45034256     0.41285131     8.20589758     1.09293676     0.35106498    -0.53414817
O       3.99112080     3.40045356     3.03693314    -1.09293676    -0.35106498     0.53414817
