# total energy = -4982.91248821 eV

CRYSTAL
PRIMVEC
        4.27814376     0.00000000     0.00000000
        0.00000000     2.87280421     0.00000000
        0.00000000    -0.00009207     5.70000877
PRIMCOORD
6 1
Ti      2.13907188     1.43635601     2.85000428     0.00000000     0.00000000     0.00000000
Ti      0.00000000     0.00000000     0.00000000     0.00000000     0.00000000     0.00000000
O       2.13907188     0.55984928     1.11084774    -0.00000000    -0.39125725     1.95835498
O       2.13907188     2.31286281     4.58916081    -0.00000000     0.39125725    -1.95835498
O       0.00000000     0.87647023     3.96085310     0.00000000     0.39141024     1.95980457
O       0.00000000     1.99624180     1.73915540     0.00000000    -0.39141024    -1.95980457
