# total energy = -19518.86826899 eV

CRYSTAL
PRIMVEC
        7.60600008     0.00000000     0.00000000
        0.00000000     7.60600008     0.00000000
       -1.89786986    -1.89786986     4.85670466
PRIMCOORD
23 1
Ti      3.78833199     6.53119399     1.24941998     0.48549362     1.05616920     0.07859942
Ti      3.73730501     2.82298399     1.20132697     0.51117226    -0.76533696    -0.13067097
Ti      0.05824802     6.74436199     1.26845200    -0.72038712    -0.72304153    -0.79161853
Ti     -0.04055202     2.92785898     1.01905499    -0.43871367     0.13122195     1.98901437
Ti      5.63373520     2.93223623     3.62536582     0.12491041     0.76925661     0.73079855
Ti      5.74255124    -0.98114876     3.61048980    -0.41394313    -0.39153571    -0.43038894
Ti      2.04972125     2.84362222     3.63593582    -0.89925343    -0.28310659     1.14603778
Ti      1.90891723    -1.03121977     3.66997880     0.40726958     0.21524384     0.58162926
O       3.66021400     4.67708502     0.81940499    -0.07585374     0.56263317     0.15946091
O       3.76327402     0.89346901     0.86564698     0.00763052     0.59040649    -0.54323419
O      -0.03731499     4.86193902     0.69037401     0.56659576    -0.54752536     1.08984527
O      -0.06672502     0.95557500     0.75130898     0.20263874     0.71079433     0.14791279
O       5.77178421     4.83349421     3.95578680     0.38954978    -1.01564912     0.25590585
O       5.73991525     1.02194324     4.09713279     0.49706950    -0.49296191    -2.33079355
O       1.87455521     4.69511023     4.00361680    -0.26114653    -0.04763125     0.88899833
O       1.83944420     0.94169325     4.05962381    -0.18299216    -0.43870724     0.52476672
O       3.80348122     2.95565121     3.43847979     0.35180495    -0.43818453    -1.00983585
O       3.81833523    -1.06860678     3.27183383     0.12385086     0.35517335    -0.61437407
O       0.09572425    -1.20288778     3.17203380    -1.62451922     1.16298367     0.28160044
O       5.70214099     6.62933298     1.54423299    -0.15864689     0.12421955     0.90368242
O       5.67985601     2.90315302     1.74032300     0.90751696    -0.09123897    -1.42961231
O       1.88560798     6.75934400     1.66647399     0.95453809    -0.25752102    -0.23807730
O       1.79110502     2.87738701     1.81722399    -0.75458512    -0.18566174    -1.25964638
