# total energy = -39032.61848051 eV

CRYSTAL
PRIMVEC
        7.60600008     0.00000000     0.00000000
        0.00000000     7.60600008     0.00000000
       -3.79573973    -3.79573973     9.71340985
PRIMCOORD
46 1
Ti      1.87266843     4.79175345     6.31025863     1.07014727     0.00711527     0.37833257
Ti      3.66757401     6.79240297     1.38277101     0.76473172    -0.58389003     0.87090778
Ti      1.91034442     0.52925044     6.02503664     0.23032902     6.35029318     0.49464109
Ti      3.79370700     2.68601101     1.04363300     0.75261154     0.19238826    -0.79385128
Ti     -1.89093055     4.75214347     6.29443660    -0.59694944     0.80537111    -1.57956398
Ti     -0.07432998     6.75999103     1.35970602    -0.94960671    -0.20722148    -1.93593238
Ti     -1.86374254     1.05353343     6.12665063     1.04680164    -0.01400069    -0.40895416
Ti      0.08412400     3.00856899     0.98215800    -0.65991681     0.60005328    -4.20521741
Ti      3.91001545     1.14357643     8.29670663     0.24982647    -0.26359216     2.38607898
Ti      5.72541997     2.85096598     3.44851801    -2.17397137     1.28854019     0.38423326
Ti      3.81800444    -2.85035753     8.59879264    -0.14231601     1.30754760    -0.56267534
Ti      5.79089698    -0.86344301     3.74096200    -2.56529625    -1.61166962     0.46157875
Ti      0.13348443     1.14621147     8.49441762    -0.33100574    -3.04209234    -1.62676123
Ti      1.69582502     2.75282398     3.39621498     3.30906525    -0.26045799    -0.45074283
Ti      0.00238643    -3.01637653     8.57861363    -1.06875810     1.84109541     0.47850844
Ti      1.93375099     6.17790399     3.64394598    -0.36004816     2.77450416     0.10144317
O       1.60346443    -1.07035957     5.78311564    -0.53135209    -3.14456266    -1.05170088
O       3.26423601     0.86791800     0.96143902     0.62846475     1.35594040    -1.46070673
O      -1.96353653     3.06914947     5.81091565    -0.22401516    -3.34603541    -1.26433813
O      -0.13686498     4.87851502     0.71091302     0.01207545    -0.57687477    -0.04150816
O      -1.88458455    -0.85743055     5.63002863     0.62806006     0.07701768     0.79844738
O       0.05525399     1.04240002     0.75580900     0.06272517    -1.47451124     1.29604550
O       3.99537746     2.94675246     8.96831664    -0.91171300    -1.73104727    -0.20064999
O       5.62432500     4.76078001     4.09295002     0.66675492    -0.30730762    -0.88625676
O      -3.22336357    -1.04737555     8.78856661    -1.78004866     1.35498652     0.27631219
O       5.66288498     1.01308598     3.97307602     0.23379230     1.95666731     0.62091033
O       0.09797447     2.81593545     9.16912364     0.26472551    -0.17828139    -0.67986472
O       1.72160002     4.50454900     4.38211501     0.21423417    -2.60566721    -1.42700392
O       0.03106143    -0.86059556     8.81394061    -0.41752802     0.19693012     0.37719820
O       1.90970301     0.99703201     4.10753398    -0.42035110     1.31500431     0.95790598
O       2.04631943     1.09709943     8.04121662    -1.38294882    -0.46777974    -0.51824280
O       3.84805599     2.92634802     2.91889202     0.60536955     0.25943803     1.48486405
O       1.81304746    -2.68453053     8.22264763     1.55414219    -0.87772995     0.69305217
O       3.70091598    -0.81328701     3.28889900     0.20355174    -1.24013710     0.73507507
O      -1.81284357     0.92323644     8.14871062     0.23106281     1.14300156    -1.18956837
O       0.00621302     2.88113401     2.76339699    -2.24000838    -0.24092968     3.91200330
O      -1.96899155     4.39667844     8.13934963     2.12582616     1.00526520    -0.33951841
O      -0.09023202    -0.82681601     3.38814598     2.50427135    -0.59414437    -1.08805681
O       3.74781246     4.88728544     6.50116165    -0.09934129    -0.39847640     0.37210716
O       5.66332002     6.81889099     1.47929399    -0.14903816    -0.31799313     1.34523253
O       3.82165047     0.87888144     6.37501463    -0.37021945     0.30579812    -0.06460310
O       5.63437699     2.63289701     0.98963798     0.89670881     0.85648389     2.01948813
O       0.08382247     4.52306846     6.62100162    -1.73622007    -0.20540062     0.06507156
O       1.79644199     6.42125800     1.76939002     0.43515192    -0.83510979    -0.00909400
O       0.01968645     1.33738146     6.43269664     1.21061209    -0.91213647     0.11343891
O       1.94428199     3.05950701     1.42164902    -0.79038903     0.44360699     1.16193594
