# total energy = -4979.01331352 eV

CRYSTAL
PRIMVEC
        4.73491952     0.00000000     0.00000000
       -0.00001054     4.73491952     0.00000000
       -2.36749690    -2.36750217     6.04281037
PRIMCOORD
6 1
Ti     -0.00020851     3.55136898     1.51070243    -0.00403972     0.00403972     0.00000000
Ti      2.36762047    -1.18395176     4.53210755     0.00403972    -0.00403972     0.00000000
O       0.00004730     1.18372184     0.98432437    -0.00056256    -0.00247392    -1.33687284
O       2.36736453     1.18369526     5.05848568     0.00056256     0.00247392     1.33687284
O      -0.00002674    -1.18370128     4.00572949    -0.00247392    -0.00056256    -1.33687284
O       2.36743850     3.55111831     2.03708056     0.00247392     0.00056256     1.33687284
