# total energy = -19948.46008681 eV

CRYSTAL
PRIMVEC
        5.93400000     0.00000000     0.00000000
        0.00000000     9.29699974     0.00000000
        0.00000000     0.00000000     4.64899994
PRIMCOORD
24 1
Ti      4.46094898     6.55042900     2.52842102     1.25436791     5.75656353    -2.92749231
Ti      4.39038002     2.50620399     2.27609999     0.80562256     0.31919152    -0.45419865
Ti      1.57913699     5.96211598     2.32742997    -1.63936401     6.90052386    -1.68719426
Ti      1.48575202     2.57220398     2.18533202    -1.02367816    -0.97320225     0.47361949
Ti      2.98971901     4.53061500     0.07870601     1.12679821     4.07446366    -0.68616110
Ti      2.89907402     0.65481901     4.53318998    -3.99970829    -8.16612363     0.64049803
Ti      0.06137800     4.36995102     4.60417397    -1.24029291     1.45407970    -1.41547329
Ti      5.83706600     0.64289099     4.44040399     0.94340006    -8.92821483    -0.96551182
O       4.48768000     5.52581903     0.99715198     0.32986006    -2.47255627    -1.19778768
O       4.36761100     1.12905999     0.85117102     0.40051657     1.98759589     2.11766034
O       1.37795502     5.49458301     0.57391400     1.03735412    -0.80347929     2.11126009
O       1.30295700     1.34953899     0.79952798     1.89239305     0.63020307     1.05814381
O       4.71341600     8.36353600     3.87613303    -0.18713190     2.82420232     0.40883692
O       4.34441901     3.68629201     3.88432601     0.74818590    -1.99123503    -1.51191155
O       1.48752598     8.85360800     3.70664501     0.77648810     1.94329680     2.01569292
O       1.59895198     3.53025399     3.80977700    -0.48794620    -0.22745967     0.03615589
O       2.97687598     6.02068903     3.55010301     0.01325584    -1.19124087     0.59015067
O       3.01248199     1.56790499     3.13097102     0.03993979     1.97102975    -3.51159060
O       0.05620799     5.69235100     3.47378199    -0.87471456     1.05908921    -2.60227798
O       5.83484298     1.58981002     2.97924500     0.29446624     1.30526086    -1.03071245
O       2.99525098     7.30972798     1.41644398    -0.20677745    -0.68039642     2.47117584
O       2.93691998     3.66527198     1.67084901    -0.33937983    -1.52499436     1.32741889
O       0.17708001     7.38631998     1.75559400     0.31082438    -1.29970650     1.22863270
O       5.88610401     3.51783801     1.50144303     0.02552078    -1.96689053     3.51106635
