# total energy = -19517.01326132 eV

CRYSTAL
PRIMVEC
        5.17600016     0.00000000     0.00000000
        0.00000000     5.50899976     0.00000000
        0.00000000     0.00000000     9.26300011
PRIMCOORD
23 1
Ti      1.90772701     3.23013598     3.36430401     0.54169410    -1.63973605     3.16783604
Ti      3.28242600     2.25678502     6.01189802     0.00648535     0.45349957    -3.26194719
Ti      4.44014501     2.08511098     1.40831302    -0.31270771    -0.34397748     0.39806374
Ti      0.86651801     3.36082900     7.75478398     0.55597761     0.94689548    -0.63459529
Ti      2.05428498     0.19807999     1.36327701    -0.64899193     0.88223787    -0.62694523
Ti      3.23574299     5.18954202     7.95823898     0.16147794     1.03831829    -0.96865371
Ti      0.72209400     0.58432599     5.88075398    -0.81030480    -0.23992901    -3.22307493
Ti      4.51572501     4.88954101     3.34048600     0.59430635     0.28772378     3.79064950
O       1.57595499     1.92000000     4.72737702    -0.12221589    -0.33500227     1.06642611
O       3.43790801     3.47543498     4.42287198     1.63072818     0.26989985     0.21934321
O       5.08919699     2.87675798     9.18008200    -0.36997443     0.04836453     1.53027232
O       3.39934200     0.90457199     0.20817002     0.45106859    -0.62662127    -1.10608899
O       1.90072800     4.54730801     9.06333698    -0.38378768    -0.64926550     0.37799601
O       4.14769102     0.64923201     4.95304302     0.22866372     0.43955622    -0.27287616
O       1.02067200     4.81386898     4.44371902    -0.43320559    -0.49334063    -0.27951578
O       0.22738900     3.31255899     2.60427000    -1.17647759     0.20906033    -1.29723618
O       4.94796800     2.09561203     6.90157399    -0.70759973    -0.46424730    -1.09996436
O       2.76577199     1.71056398     2.26345202    -0.66533927     1.63598712     1.01601396
O       2.48576399     3.89827502     6.66559501    -0.03852671    -0.63221599     1.48840857
O       0.25185498     0.66602799     2.12357201     0.50240917    -0.58948038    -0.91004822
O       5.03107798     4.81581799     7.19264301    -0.22704778     0.07592830     0.57561082
O       2.18361701     1.09755801     7.10710902     0.45987874    -0.16643605     0.66018009
O       2.92901502     4.43410101     2.26134097     0.76348911    -0.10721916    -0.60985433
