# total energy = -19881.06564359 eV

CRYSTAL
PRIMVEC
        9.35517265     0.00000000     0.00000000
        0.00002908     3.31891092     0.00000000
        0.00000000     0.00000000    14.88329064
PRIMCOORD
24 1
Ti      3.39081715     1.96678342     5.52159480     0.21869837     0.09097363     2.00814878
Ti      5.96438421     1.35212717     9.36169628    -0.21869837    -0.09097363    -2.00814878
Ti      8.06824389     1.35212824     1.91999128     0.21910358    -0.09100886    -2.00925436
Ti      1.28695752     1.96678248    12.96329993    -0.21910358     0.09100886     2.00925436
Ti      3.39080299     0.30732803     1.92005096     0.21869837     0.09097363    -2.00814878
Ti      5.96439843     3.01158270    12.96324025    -0.21869837    -0.09097363     2.00814878
Ti      1.28694330     0.30732690     9.36163660    -0.21910358     0.09100886    -2.00925436
Ti      8.06825812     3.01158383     5.52165449     0.21910358    -0.09100886     2.00925436
O       2.96098131     1.16864485     7.59482947     0.96831818     0.48913533    -1.95362261
O       6.39422011     2.15026581     7.28846162    -0.96831818    -0.48913533     1.95362261
O       1.71667991     1.16865833     0.15323185    -0.96833952     0.48908494    -1.95336344
O       7.63852157     2.15025234    14.73005879     0.96833952    -0.48908494     1.95336344
O       6.39420589     0.49081029     0.15318351    -0.96831818    -0.48913533    -1.95362261
O       2.96099553     2.82810031    14.73010713     0.96831818     0.48913533     1.95362261
O       7.63850735     0.49079688     7.59487774     0.96833952    -0.48908494    -1.95336344
O       1.71669394     2.82811378     7.28841335    -0.96833952     0.48908494     1.95336344
O       0.33991252     2.01874975     4.02034818    -1.47508563     0.52535473     0.79869370
O       9.01528890     1.30016084    10.86294284     1.47508563    -0.52535473    -0.79869370
O       5.01751122     1.30013008     3.42134465    -1.47695867    -0.52532799    -0.79863250
O       4.33769020     2.01878058    11.46194618     1.47695867     0.52532799     0.79863250
O       0.33989830     0.35929430     3.42129714    -1.47508563     0.52535473    -0.79869370
O       9.01530312     2.95961637    11.46199369     1.47508563    -0.52535473     0.79869370
O       4.33767604     0.35932506    10.86299028     1.47695867     0.52532799    -0.79863250
O       5.01752538     2.95958554     4.02030067    -1.47695867    -0.52532799     0.79863250
