# total energy = -39025.88916865 eV

CRYSTAL
PRIMVEC
        5.93200024     0.00000000     0.00000000
        0.00000000     9.29399984     0.00000000
        0.00000000     0.00000000     9.29399984
PRIMCOORD
46 1
Ti      4.34241200     7.34001702     6.95074900     0.49198489    -1.03053890    -0.31372124
Ti      4.52349000     6.62354399     2.52342802    -3.67027581    -0.07234624    -2.16953210
Ti      4.60779101     1.92515700     6.98701500    -0.30278402     0.96336212    -1.05308002
Ti      4.41369398     2.60850797     2.45688700     1.04939949     0.43998790    -0.19828638
Ti      1.46226602     7.22132299     7.08647000     0.82241316    -0.93641000     0.63927187
Ti      1.53291500     7.04479602     1.89236002     3.62929369    -1.00162117    -0.53819251
Ti      1.58252801     2.47161501     6.82666900    -0.75843535    -2.15007090    -2.24406327
Ti      1.28866699     2.38567598     3.38198498    -4.89291500     0.07605943     3.62134101
Ti      2.89643300     4.68508200     4.98204802     3.69718550     0.15452053    -0.07412570
Ti      3.05489798     4.38120498     8.84998901     0.28274381     2.32016435    -1.18133467
Ti      3.01268599     0.06058402     4.66113102    -1.73122442     0.57024364     0.78335860
Ti      2.94706399     0.24651500     0.24855699    -1.12395019    -1.21501870    -1.71137344
Ti      5.91633702     4.81557701     4.61918499    -0.71106764    -2.04013023     1.58683815
Ti      5.83300600     4.80739598     8.93541700     0.27500015    -0.37583089    -0.19567182
Ti      0.13801599     8.36081402     4.08001200     0.13359740     2.40835605    -0.26152474
Ti      0.00806101     0.12900198     0.19875702    -0.96359249    -1.44518446    -1.68214435
O       4.62896799     5.48475101     5.62714001    -1.22119552     2.38313815     0.40373714
O       4.32105801     4.56686402     1.12751998     0.32582831    -0.50199317    -1.59469442
O       4.35434299     0.85927601     5.53366201     1.56160739     0.19180462     0.21856853
O       4.29705098     1.29947702     0.87701800     0.42583012    -0.01021834     0.08676011
O       1.64011498     5.57129800     5.76596601    -2.28641090     1.53719604     1.43157817
O       1.35439298     5.75226402     0.57169299    -0.12897635    -1.70479707     0.59119531
O       1.43619198     1.17719803     5.14884501     2.11150254    -1.88027775    -0.96044288
O       1.26481999     1.09167901     0.87098300     2.74991541     0.83855892     1.23069189
O       4.52317398     8.48454698     8.27880900    -0.29741504     1.63323630     1.22168943
O       4.22877399     7.83063397     3.80094699     0.90911028     3.39948892     1.40890541
O       4.41162902     4.02128899     7.50496501    -0.05802056    -2.10608677     4.06799939
O       4.35500102     4.01412398     3.73434300     1.04664429     0.04864709    -1.44266657
O       1.26046401     8.27558801     8.57881700     0.31408762     0.95610929     0.29625984
O       1.85761101     8.60066302     3.41420002    -1.63544539    -0.69232249    -1.31222083
O       1.26023398     3.54634098     8.27019400     0.51825077     1.91803339     1.36351128
O       1.60904799     4.15425499     3.81567998    -0.34585567    -0.96974488    -2.91733542
O       3.20594200     6.20130997     7.76975801    -1.70120189    -0.56454890     1.16237277
O       2.74766598     6.33351703     3.10744200     0.41609952    -2.32384078    -0.62395015
O       2.90854502     1.39594000     7.82548402     1.00135018     0.08553009     0.50017051
O       2.81904199     1.85495401     3.11034401     5.36296709    -2.18885370    -1.54488236
O       5.82826901     6.17034702     7.80506000     0.09839255     0.92879156    -0.55798384
O       0.13520902     6.35994398     3.47312698     1.71248081    -0.22509811    -0.15031497
O       0.21964602     1.24708001     7.83310899    -1.69298670     1.16884476    -1.04121283
O       2.78353801     8.27806302     6.19792700     0.82166008    -0.86971042    -0.22861744
O       3.04528701     7.78190199     0.96830499     0.68578237     0.82370283     1.39516902
O       3.05394901     3.03959899     5.77618998    -0.53515115     0.45571303     0.74571970
O       0.40445398     8.11520899     5.79410099    -1.89397968    -1.34422337     1.25162094
O       5.92507299     7.99052599     1.72509799    -2.63065989     1.10063619    -0.58977092
O       0.18597199     2.98089699     5.53693201    -0.65178466     1.74682922     1.62684376
O       5.62893101     1.44981702     3.24842101    -1.20979910    -0.50008644    -1.04646046
