# total energy = -19074.90835158 eV

CRYSTAL
PRIMVEC
        7.60600008     0.00000000     0.00000000
        0.00000000     7.60600008     0.00000000
       -1.89786986    -1.89786986     4.85670466
PRIMCOORD
22 1
Ti      3.83655898     6.56901101     1.15215302    -0.27030763     0.42340583     1.89605970
Ti      3.80880199     2.88169398     1.13268602    -0.42188090    -0.52016779    -0.79402843
Ti      0.30626202     6.75625398     1.02336398     0.24282227    -2.04496391     0.86883444
Ti     -0.06324700     2.77927300     1.28537202     0.35876158     1.23301026    -0.11155584
Ti      5.55878423     2.88847221     3.60206080     1.54170345     0.30061092     1.61624798
Ti      6.00279220    -0.73217075     3.55458080     0.61372821    -2.18689580     0.38336936
Ti      1.84809720     2.76616120     3.55631782    -0.63899779    -1.24087758    -0.21084982
Ti      1.49368920    -1.16568276     3.85274482    -0.83381241     1.72397493     0.19612177
O       3.83387399     4.72974901     0.59432299    -0.16203124    -1.30886991     2.15661154
O       4.08041201     0.94497499     0.72415102    -0.39069521    -0.42273065     1.39036363
O      -0.02995799     4.84658499     0.72265202     0.29671313     0.17352844    -0.03348992
O      -0.09366501     0.88823502     1.02165098    -0.13021280     2.32927583    -0.12803481
O       5.91704321     4.95605822     4.03265582    -0.47010119    -0.35278300    -1.29378730
O       5.54316022     0.96984823     4.13002581     0.12154818    -0.08617235    -0.45604085
O       2.05609820     4.60117624     4.23341583    -0.48148784     2.01426493    -3.68084896
O       1.49341223     0.82834020     4.05341079     0.94557830     0.31712975    -0.02372255
O       3.77932920     2.80799324     3.17736182    -0.37019683    -0.09060494    -0.11069503
O      -0.05497178     2.74855722     3.29359180     0.19082452     0.70976563    -1.10593627
O       5.56646502     6.51533100     1.78538001     0.65298434     0.55940206     0.63564661
O       5.70657798     3.07811299     1.60456401    -0.32186238    -0.43486704     0.24974934
O       2.03607202     6.72182099     2.13401802     0.80443780    -0.58679049    -2.30831105
O       1.94696301     2.99415198     1.53321599    -1.27751504    -0.50864513     0.86429645
