# total energy = -19951.59357009 eV

CRYSTAL
PRIMVEC
        5.92364891     0.00000000     0.00000000
        0.00002948     5.70411992     0.00000000
        0.00000000     0.00000000    10.12247629
PRIMCOORD
24 1
Ti      2.14705532     3.38025613     3.75536660     0.09112559    -0.45540373     0.31661347
Ti      3.77662307     2.32386368     6.36711004    -0.09112559     0.45540373    -0.31661347
Ti      5.10877654     2.32386564     1.30583129     0.09215994     0.45541144    -0.31642758
Ti      0.81490191     3.38025446     8.81664552    -0.09215994    -0.45541144     0.31642758
Ti      2.14704064     0.52819629     1.30587189     0.09112559    -0.45540373    -0.31661347
Ti      3.77663781     5.17592369     8.81660492    -0.09112559     0.45540373     0.31661347
Ti      0.81488717     0.52819421     6.36706949    -0.09215994    -0.45541144    -0.31642758
Ti      5.10879123     5.17592583     3.75540720     0.09215994     0.45541144     0.31642758
O       1.87488268     2.00851752     5.16542230     0.93508306     0.87509740    -0.15364095
O       4.04879577     3.69560228     4.95705434    -0.93508306    -0.87509740     0.15364095
O       1.08699725     2.00854059     0.10421657    -0.93523655     0.87558102    -0.15424902
O       4.83668126     3.69557927    10.01825983     0.93523655    -0.87558102     0.15424902
O       4.04878103     0.84354227     0.10418375    -0.93508306    -0.87509740    -0.15364095
O       1.87489742     4.86057754    10.01829265     0.93508306     0.87509740     0.15364095
O       4.83666652     0.84351926     5.16545518     0.93523655    -0.87558102    -0.15424902
O       1.08701182     4.86060061     4.95702152    -0.93523655     0.87558102     0.15424902
O       0.21523790     3.46956910     2.73433345    -0.02202433    -0.13631634     0.17682126
O       5.70844056     2.23455076     7.38814319     0.02202433     0.13631634    -0.17682126
O       3.17706760     2.23449767     2.32693706    -0.02213052     0.13636802    -0.17710614
O       2.74661079     3.46962220     7.79553946     0.02213052    -0.13636802     0.17710614
O       0.21522316     0.61750909     2.32690470    -0.02202433    -0.13631634    -0.17682126
O       5.70845524     5.08661078     7.79557177     0.02202433     0.13631634     0.17682126
O       2.74659611     0.61756218     7.38817549     0.02213052    -0.13636802    -0.17710614
O       3.17708234     5.08655763     2.73430115    -0.02213052     0.13636802     0.17710614
