# total energy = -19926.33819132 eV

CRYSTAL
PRIMVEC
        6.80352641     0.00000000     0.00000000
        0.00003164     5.92446256     0.00000000
        0.00000000     0.00000000    11.18164975
PRIMCOORD
24 1
Ti      2.46596983     3.51083090     4.14831245     0.36157514    -0.78313132     0.84153138
Ti      4.33758828     2.41363140     7.03333775    -0.36157514     0.78313132    -0.84153138
Ti      5.86761516     2.41363331     1.44246797     0.36170884     0.78304596    -0.84151466
Ti      0.93594296     3.51082918     9.73918235    -0.36170884    -0.78304596     0.84151466
Ti      2.46595426     0.54859975     1.44251281     0.36157514    -0.78313132    -0.84153138
Ti      4.33760385     5.37586274     9.73913752    -0.36157514     0.78313132     0.84153138
Ti      0.93592739     0.54859758     7.03329291    -0.36170884    -0.78304596    -0.84151466
Ti      5.86763072     5.37586485     4.14835728     0.36170884     0.78304596     0.84151466
O       2.15337022     2.08610389     5.70591045     0.97009327     1.34949233    -0.77919624
O       4.65018789     3.83835841     5.47573974    -0.97009327    -1.34949233     0.77919624
O       1.24845502     2.08612783     0.11512137    -0.96994543     1.34945017    -0.77996012
O       5.55510316     3.83833453    11.06652851     0.96994543    -1.34945017     0.77996012
O       4.65017232     0.87612707     0.11508507    -0.97009327    -1.34949233    -0.77919624
O       2.15338579     5.04833523    11.06656481     0.97009327     1.34949233     0.77919624
O       5.55508753     0.87610319     5.70594675     0.96994543    -1.34945017    -0.77996012
O       1.24847046     5.04835917     5.47570345    -0.96994543     1.34945017     0.77996012
O       0.24720697     3.60359399     3.02044267    -0.78335526     0.06176281     0.04167297
O       6.55635114     2.32086831     8.16120753     0.78335526    -0.06176281    -0.04167297
O       3.64897699     2.32081325     2.57041800    -0.78304853    -0.06152189    -0.04177633
O       3.15458113     3.60364905     8.61123200     0.78304853     0.06152189     0.04177633
O       0.24719135     0.64136265     2.57038227    -0.78335526     0.06176281    -0.04167297
O       6.55636677     5.28309965     8.61126773     0.78335526    -0.06176281     0.04167297
O       3.15456550     0.64141771     8.16124319     0.78304853     0.06152189    -0.04177633
O       3.64899262     5.28304459     3.02040694    -0.78304853    -0.06152189     0.04177633
