# total energy = -19075.84680025 eV

CRYSTAL
PRIMVEC
        7.60600008     0.00000000     0.00000000
        0.00000000     7.60600008     0.00000000
       -1.89786986    -1.89786986     4.85670466
PRIMCOORD
22 1
Ti      3.78491398     6.53581498     1.24958402     0.92647217    -0.18526245    -0.44838179
Ti      3.76249697     2.76804100     1.17941602     1.10292396     0.13803332     0.05134032
Ti      0.25058501     6.79735501     1.00924600    -0.28489351    -1.51792639     1.05316667
Ti      0.05807101     2.91071200     1.11994798    -1.03920300     1.30784019     0.63059208
Ti      5.67007624     2.90703723     3.48598281     0.52743141     0.69647688     0.50418735
Ti      5.99404522    -0.83733378     3.64146980     0.14317090    -0.18507733    -0.66392773
Ti      1.92645824     2.76328221     3.63532679    -0.69847129    -0.64686023     0.49956424
Ti      1.28483522    -1.13819179     3.95292083     1.48706620     1.11755457    -1.40244114
O       3.97520998     4.55369602     0.71370898    -0.61233210     2.11413844     0.72311583
O       3.94406002     0.87068502     0.88913700    -1.00622756    -0.95790289     0.39707489
O       0.20566199     4.86328900     0.65667198    -0.23796571    -0.40376825     0.62021382
O      -0.16648202     1.02124499     0.70034302     0.60234053     0.98825246     0.81925147
O       5.67987025     4.88670123     4.02157581     0.03957366     0.27012405    -1.37480125
O       5.55216221     1.11103124     3.90139081     0.66323739    -2.05532880     0.66664796
O       1.86764125     4.64159321     4.21944682    -0.62630991     0.97063834    -0.36404726
O       1.81696925     0.78622325     4.09517780    -0.67082035    -0.12920467    -0.67689535
O       3.74697922     3.00182521     3.31764179     0.51586607    -0.34977763    -0.84180237
O       0.00564521     2.98566324     3.15764283     0.28359176    -0.34224430    -0.56391461
O       5.67665502     6.60967003     1.80625902    -0.22856524     0.04978635     0.05054379
O       5.69406897     2.86015800     1.54489298     0.50725750     0.10280560     0.52057299
O       2.01734899     6.63110102     2.03195100    -0.50390427    -0.32074010     0.19417672
O       1.94531002     2.91664201     1.64166198    -0.89023889    -0.66155692    -0.39423665
