# total energy = -19923.35798017 eV

CRYSTAL
PRIMVEC
        6.39205424     0.00000000     0.00000000
        0.00002249     3.66319628     0.00000000
        0.00000000     0.00000000     9.67064381
PRIMCOORD
24 1
Ti      2.31682563     2.17080684     3.58774001    -0.64863326     2.10763740    -2.33109772
Ti      4.07525125     1.49238974     6.08290420     0.64863326    -2.10763740     2.33109772
Ti      5.51274321     1.49239104     1.24754349    -0.64044018    -2.10877614     2.33584089
Ti      0.87933367     2.17080564     8.42310083     0.64044018     2.10877614    -2.33584089
Ti      2.31681449     0.33920875     1.24758225    -0.64863326     2.10763740     2.33109772
Ti      4.07526240     3.32398793     8.42306207     0.64863326    -2.10763740    -2.33109772
Ti      0.87932253     0.33920730     6.08286544     0.64044018     2.10877614     2.33584089
Ti      5.51275436     3.32398933     3.58777877    -0.64044018    -2.10877614    -2.33584089
O       2.02313351     1.28987374     4.93485567     3.74364561    -2.10209564     3.69944421
O       4.36894338     2.37332279     4.73578854    -3.74364561     2.10209564    -3.69944421
O       1.17294693     1.28988850     0.09956468    -3.74375848    -2.10404788     3.69868651
O       5.21913001     2.37330808     9.57107923     3.74375848     2.10404788    -3.69868651
O       4.36893223     0.54172465     0.09953331    -3.74364561     2.10209564     3.69944421
O       2.02314466     3.12147193     9.57111060     3.74364561    -2.10209564    -3.69944421
O       5.21911886     0.54170989     4.93488704     3.74375848     2.10404788     3.69868651
O       1.17295793     3.12148669     4.73575712    -3.74375848    -2.10404788    -3.69868651
O       0.23225179     2.22816366     2.61228224     2.23096684    -0.45784165     1.75477522
O       6.15982510     1.43503292     7.05836197    -2.23096684     0.45784165    -1.75477522
O       3.42828680     1.43499867     2.22307058     2.23105940     0.45792958    -1.75447645
O       2.96379009     2.22819791     7.44757343    -2.23105940    -0.45792958     1.75447645
O       0.23224064     0.39656547     2.22303971     2.23096684    -0.45784165    -1.75477522
O       6.15983625     3.26663111     7.44760430    -2.23096684     0.45784165     1.75477522
O       2.96377895     0.39659972     7.05839279    -2.23105940    -0.45792958    -1.75447645
O       3.42829794     3.26659686     2.61225138     2.23105940     0.45792958     1.75447645
