# total energy = -19961.49562475 eV

CRYSTAL
PRIMVEC
        7.60600008     0.00000000     0.00000000
        0.00000000     7.60600008     0.00000000
       -1.89786986    -1.89786986     4.85670466
PRIMCOORD
24 1
Ti      3.75859397     6.59304000     1.29402899    -0.09615158     1.01059818    -1.09343762
Ti      3.77211900     2.91394702     1.23295002     0.39417880    -1.24352736    -0.38490714
Ti     -0.02507099     6.61979001     1.17374599     0.19324239     0.15484963     0.84342422
Ti      0.03526099     2.88221998     1.16238498    -0.23584301    -0.10270327    -0.15525098
Ti      5.76149023     2.87287424     3.58143982    -0.43415716     0.22802300     0.33943614
Ti      5.70988920    -0.98038378     3.65798484     1.34182478    -0.04003415    -0.37377709
Ti      1.85594125     2.88332120     3.59922881     0.47036010     0.25703534     0.65021192
Ti      1.90040923    -0.94401877     3.62612382    -1.23500081    -0.28654981     1.56378743
O       3.67905699     4.76496501     0.84788399     0.21347286     0.02516957    -0.62340379
O       3.61665001     0.97267298     0.82890102     0.81431084    -0.34761816     0.46832790
O       0.08392899     4.75373000     0.77932299    -0.22282782    -0.32383828    -0.42496263
O       0.14766898     0.95885902     0.68902402    -0.77302842    -0.20156325     1.30206369
O       5.98294620     4.74851723     4.08703979    -0.95205877    -0.80036183    -0.31790751
O       5.85458124     0.93431821     4.08079481    -0.74610048     0.74465243    -0.70753880
O       1.67979523     4.76653524     4.10056382     0.72173438    -0.92579109     0.46362047
O       1.85609725     0.93308523     4.02465181     0.39114515     0.82511796     0.42953560
O       3.79755221     2.97431921     3.26179480     0.37656622    -0.32311220    -0.19686533
O       3.80196920    -1.14980977     3.29036381     0.31860608     0.46845671    -0.37989735
O       0.00193721     2.79193922     3.19871280    -0.06823350    -0.15104825    -0.46443911
O      -0.03406176    -1.04528477     3.20231782    -0.27144560     0.74378597    -0.29100605
O       5.73364799     6.56191601     1.57267499    -1.19051479     0.49876952    -0.02608077
O       5.70703699     3.02892898     1.57494601     0.18484645    -0.70929229     0.42013435
O       1.82327101     6.55224599     1.77411700     1.37463053     0.36197598    -1.27260732
O       1.91390399     2.88315001     1.65155701    -0.56955664     0.13700565     0.23153924
