# total energy = -19066.51299750 eV

CRYSTAL
PRIMVEC
        5.17600016     0.00000000     0.00000000
        0.00000000     5.50899976     0.00000000
        0.00000000     0.00000000     9.26300011
PRIMCOORD
22 1
Ti      1.83891402     3.21506200     3.23991999    -0.37591702     2.57953811    -0.01322319
Ti      3.79754899     1.94574400     6.02643901    -1.86407388     1.44604320    -2.07173013
Ti      4.32441400     2.24356401     1.62635198     0.70478772     0.09638915    -2.12354894
Ti      1.23737199     3.16192800     7.87725999    -1.33240452    -1.96379518     1.98749151
Ti      1.67446700     0.61950299     1.23455602     1.06497755    -1.14220220    -2.23929542
Ti      3.34168099     5.23293201     7.94253898     2.22184096     3.44254026     2.90712608
Ti      0.65547699     0.00924499     6.15564002     1.73499057     2.23765248     1.34672994
Ti      4.41063602     5.11523701     3.51257402    -4.76915568    -1.78234002    -2.25695993
O       3.15397801     2.38658601     4.21153901     0.53368305     0.84032578     0.34524812
O       0.44250998     2.28322499     0.28899899    -0.30429634    -0.29927369    -0.23387534
O       5.12395399     3.93915200     6.67784901    -0.99064384    -1.15737069     1.65270058
O       3.28320701     0.89546099     0.12200901     0.50634425     0.85600232     2.22678622
O       1.86257501     4.59159199     9.15944599    -0.98792464    -0.69658770    -1.24486922
O       4.03935198     0.15341499     5.46129099    -2.74180383     1.15652300     0.07644998
O       0.63328599     5.23323602     4.39921701     7.61817069    -1.33584568     0.84131823
O       0.14195402     3.76045700     2.27868301    -1.76013108    -0.74406133     1.56331538
O       4.69305501     1.65243597     7.46373401     4.55454228    -2.08920387     0.76145331
O       2.29840100     2.36742101     1.76557799     1.68969723    -0.37743217     0.00236593
O       2.39464898     4.30764400     6.87687998    -2.32031296    -2.65988357    -3.84925859
O       5.14656399     0.70607798     2.30422301     0.32273399     1.94360533    -0.95422338
O       2.47675998     1.40082002     7.20347601    -3.99065235     0.18780270    -1.21662873
O       2.53837199     5.00852101     2.35388201     0.48554813    -0.53842674     2.49262733
