# total energy = -19069.91540475 eV

CRYSTAL
PRIMVEC
        7.60600008     0.00000000     0.00000000
        0.00000000     7.60600008     0.00000000
       -1.89786986    -1.89786986     4.85670466
PRIMCOORD
22 1
Ti      3.89917298     6.69187200     1.20489500     0.98629019    -0.95665282    -0.16150905
Ti      3.88137902     2.68161201     1.10502100     1.86392784     1.35194131    -0.27770444
Ti     -0.16932402     6.73418199     1.25596199    -0.88748626    -0.74929173    -1.77859110
Ti      0.09853302     2.88666100     1.07601902    -1.83792138     0.24961590     2.40044014
Ti      5.76673120     2.70972820     3.79678681     0.24994243     5.56254801    -2.62277199
Ti     -1.19616279    -0.45793279     3.89447082    -3.18959658    -2.57365928    -2.25466162
Ti      1.82462221     2.84997822     3.69673882     1.14529267     0.19975114     1.57679748
Ti      1.22496823    -0.85988678     3.67729383     4.88798954    -0.41205183    -0.20819027
O       3.60334797     4.79676301     0.70342198     0.49291485    -1.39967180     0.78703734
O       3.99528300     0.95830502     0.44894001     0.78551087    -0.98613541     3.99895624
O       0.56337401     4.70905198     0.81657299     0.37941681    -0.76212925     0.45958666
O       7.25227700     1.06505198     0.45886801    -0.96963407    -3.79309642     2.40140790
O       4.97828123     4.30911622     4.41532982    -0.06694589     0.06095779    -0.55651934
O       5.36133825     1.02604421     3.94449881    -1.23575286     0.36107712    -0.27150551
O       2.09155424     4.77650520     4.21895082    -1.01993412    -0.93710651    -1.82509543
O       1.87807022     0.89543125     3.97056582    -0.46640163     1.78776094    -0.71298491
O       3.53650421     2.45716021     2.85194681    -1.31139037     1.02647552     0.53948346
O       0.12859822     3.09381622     3.06803179     0.05303391    -0.71366651     0.12443990
O       5.74441199     6.44092900     2.18467198    -0.31332477     0.93482672    -1.25441804
O       5.75316802     2.93530900     1.73788598    -0.65529216    -0.17522666    -0.81160629
O       2.32570501     6.60478302     2.16070300    -1.08113720     0.76116972    -0.89045255
O       1.74353199     2.08707100     0.42075402     2.19049792     1.16256432     1.33786143
