# total energy = -4981.53874074 eV

CRYSTAL
PRIMVEC
        2.82890532     0.00000000     0.00000000
        1.70479642     4.09151112     0.00000000
       -0.00001087    -0.00005889     4.52749452
PRIMCOORD
6 1
Ti      2.26684536     2.04572598     2.26374721     0.00000000     0.00000000     0.00000000
Ti      0.00000000     0.00000000     0.00000000     0.00000000     0.00000000     0.00000000
O       1.74669018     0.79736368     0.88234198    -7.48231098     3.25044433     4.20466411
O       2.78700053     3.29408828     3.64515240     7.48231098    -3.25044433    -4.20466411
O       0.52015052     1.24833853     3.14609018     7.48066470    -3.24933670     4.20291242
O       1.18463501     2.84311360     1.38140424    -7.48066470     3.24933670    -4.20291242
