# total energy = -19517.43991887 eV

CRYSTAL
PRIMVEC
        7.60600008     0.00000000     0.00000000
        0.00000000     7.60600008     0.00000000
       -1.89786986    -1.89786986     4.85670466
PRIMCOORD
23 1
Ti      3.90829499     6.63106101     1.19295502    -2.01958814    -1.43755008     1.71192391
Ti      3.81785003     2.64110000     1.27651899     0.58735305     1.79166645     0.02790188
Ti     -0.10771599     6.72426198     1.07252200     3.23776879    -0.96600907     0.36769874
Ti     -0.11522898     2.87464799     1.15763302     0.07166901    -0.30825687     1.55614662
Ti      5.72198323     2.88510823     3.70852280    -1.89374596     0.31351349    -0.74417343
Ti      5.81657922    -0.86118777     3.57001483    -0.76031637    -0.33171588     0.63361698
Ti      1.96981924     2.86504321     3.68706382    -0.35409092    -1.14604806     1.59708889
Ti      1.91583025    -1.01030076     3.69863883     0.36459002     1.49913805    -2.63057838
O       3.91044001     4.67777200     0.85148001    -0.21499727     0.63409701     0.32887687
O       3.59120399     0.87385902     0.90905000    -0.15890812     0.41111286    -1.04315016
O       7.16834499     4.77697300     0.73215599     0.87446285     0.51262622     0.46743573
O       0.09913898     0.86723600     0.63180298     0.35753337     1.70293302     0.28037299
O       5.71340823     4.81669521     3.84814780     0.09185115    -1.20309495     0.10960720
O       5.69017624     1.00658821     4.23328581     0.80681941    -0.10074254    -3.11262569
O       2.10397721     4.75936923     4.10795182    -0.45665406     0.10140589    -0.05343140
O       1.92995923     0.88062021     4.13830479    -0.65854384     0.27477261     0.19028510
O       3.66447620     2.91376821     3.19747781     2.99224017    -0.40641366    -0.24630252
O       3.80992020    -0.65741976     3.16572580     0.34341723    -1.32190258    -0.03947725
O       0.02409820    -0.94219179     3.17321080     0.29469970     0.03536657     0.08704704
O       5.81507302    -0.58689398     1.57057199    -2.59412167    -0.38868486     0.45786171
O       5.75053298     2.36551100     1.64630900    -0.70048755     1.08455059     0.83654729
O       1.86531700     6.59255098     1.55689202     0.46267456    -0.57222056     0.65919947
O       1.64426998     2.90338501     1.88028001    -0.67362516    -0.17854313    -1.44187159
