# total energy = -4988.20522857 eV

CRYSTAL
PRIMVEC
        2.77483658     0.00000000     0.00000000
        0.21725211     4.34232161     0.00000000
       -0.00000120    -0.00005643     4.34911320
PRIMCOORD
6 1
Ti      1.49604364     2.17113244     2.17455650     0.00000000     0.00000000     0.00000000
Ti      0.00000000     0.00000000     0.00000000     0.00000000     0.00000000     0.00000000
O       1.42975722     0.84624342     0.84757805    -0.79525896     0.99818515     1.00604681
O       1.56233002     3.49602147     3.50153491     0.79525896    -0.99818515    -1.00604681
O       0.06628583     1.32486615     3.02213543     0.79524353    -0.99712740     1.00497415
O       0.15096497     3.01739893     1.32697753    -0.79524353     0.99712740    -1.00497415
