# total energy = -19517.60343419 eV

CRYSTAL
PRIMVEC
        5.17600016     0.00000000     0.00000000
        0.00000000     5.50899976     0.00000000
        0.00000000     0.00000000     9.26300011
PRIMCOORD
23 1
Ti      1.81790102     3.09997298     3.47386597     0.33379796     0.78620507     1.89283502
Ti      3.38752298     2.21992598     5.87500103     1.26114431    -0.43161382    -2.12696182
Ti      4.38120202     2.17063899     1.40907201     1.33540242    -1.46528123    -1.42115415
Ti      0.93391402     3.44395698     7.74749002    -2.27165148    -0.38508198     0.42951194
Ti      2.00344898     0.33688001     1.29771100    -0.84888808     0.68247568    -1.23768247
Ti      3.14973898     5.15424701     7.96157301     1.66653261    -0.57826523    -0.44667355
Ti      0.75918800     0.52691100     5.95810000    -1.22935364    -0.43176063    -2.30703192
Ti      4.48688798     4.88916302     3.30810501     0.54912613     1.12698281     3.32855704
O       1.61547802     1.86849698     4.87390800     0.93512394     1.08117499    -1.18896622
O       3.53884100     3.55368400     4.46026697    -0.84740583    -0.44081811     0.31664998
O       0.09412402     2.73465901     9.21624100    -0.22801245     0.16669625     0.66267817
O       3.43397998     0.83737802     0.02635700     0.64698287     0.86884524     2.18210635
O       1.77193499     4.62127201     9.12426502    -0.74663321    -0.13110420     0.68420269
O       4.31673098     0.78570402     4.75690501    -0.80858550     0.15610330     0.04076794
O       0.89754701     4.69393699     4.38718802     0.61241232    -0.55192092     0.76571440
O       0.12547502     3.30430102     2.56353801     0.15889886     0.66771471    -0.47484205
O       5.06004102     2.02042499     6.83682598    -0.10556619     0.47279956    -0.38776621
O       2.67420501     1.96831701     2.12412002    -0.77198764     1.16159219     0.54100016
O       2.68843999     3.40319298     7.20479800     0.63934180    -0.27678347    -0.55910253
O       0.27434099     0.78227998     2.09656899    -0.41788129    -1.12711059    -0.60357080
O       4.98800798     4.83580401     7.14644002    -0.33567127    -0.41776097     0.58948758
O       2.39540798     0.89351901     6.96426001    -0.69919762     0.20489540    -0.99101305
O       2.65711698     4.77306402     2.48946997     1.17207124    -1.13798405     0.31125375
