# total energy = -4987.64283772 eV

CRYSTAL
PRIMVEC
        3.23504665     0.00000000     0.00000000
        1.00372924     4.96846024     0.00000000
       -0.00000668    -0.00006637     5.09462361
PRIMCOORD
6 1
Ti      2.11938455     2.48419694     2.54731192     0.00000000     0.00000000     0.00000000
Ti      0.00000000     0.00000000     0.00000000     0.00000000     0.00000000     0.00000000
O       1.81313402     0.96826684     0.99286717     0.51191917    -0.40595214    -0.58061110
O       2.42563508     4.00012704     4.10175667    -0.51191917     0.40595214     0.58061110
O       0.30624779     1.51590322     3.54018000    -0.51172814     0.40677644    -0.58028869
O       0.69747476     3.45249054     1.55444384     0.51172814    -0.40677644     0.58028869
