# total energy = -19072.77004891 eV

CRYSTAL
PRIMVEC
        5.93400000     0.00000000     0.00000000
        0.00000000     9.29699974     0.00000000
        0.00000000     0.00000000     4.64899994
PRIMCOORD
22 1
Ti      4.35444200     6.83582699     2.53434902     2.55810616    -0.42214007    -2.39680280
Ti      4.43271801     2.48708698     2.21784599     2.04505390    -2.80803110     1.29874388
Ti      1.53688001     7.25728000     2.47337002    -1.34442417    -1.05487594     0.65294372
Ti      1.67178301     2.26930599     2.17452601    -0.86805797     0.10070783    -0.72778213
Ti      3.03125101     4.56455903     4.44377897    -3.72694474     2.45733610     2.96368395
Ti      3.04200400     9.19708198     4.52523502    -0.19751942     0.30991112    -0.20997410
Ti      5.80959800     4.58079402     4.64070001    -0.07102341     0.44148917     0.10146091
Ti      5.90948100     9.10220500     0.25233299    -0.70422927     1.56186605     0.33058228
O       4.43324401     5.68046600     0.92101200    -0.22532308    -1.10531226     0.71558815
O       4.30864002     0.74682902     0.87348098     1.47976426     1.94586584     0.36904600
O       1.63195401     0.89302101     0.83784301    -1.70360536     1.21622918     0.50042299
O       4.55483000     8.23121401     3.75194899     0.16526877     2.06142592     0.70168722
O       4.30269598     3.94506699     3.56236600     3.39082096    -2.75127166    -2.23446817
O       1.26856900     8.58166402     3.66079800     0.82186989    -0.26455530    -0.60286427
O       1.40984398     3.88897700     3.69363397     1.24752414    -0.57531591     0.26936995
O       3.02346200     6.33888902     3.61026803    -3.13681567    -1.01525522    -0.59193450
O       2.93670900     1.29713399     3.06196102     0.84749094     0.58860724     1.04997439
O       5.89896201     6.01175202     3.41900400     0.74443723     0.99049832    -1.35281934
O       2.81489901     7.93967502     1.37184000     0.10702401    -1.32026685     0.60895058
O       3.22712999     3.19879101     1.25384702    -3.10663836     1.64235035    -1.92220706
O       5.82207198     7.90972502     1.51005798     1.08358669    -1.33260352     0.77631275
O       5.92373799     3.31310600     1.45107599     0.59363503    -0.66665901    -0.29991467
