# total energy = -19959.64594792 eV

CRYSTAL
PRIMVEC
        7.60600008     0.00000000     0.00000000
        0.00000000     7.60600008     0.00000000
       -1.89786986    -1.89786986     4.85670466
PRIMCOORD
24 1
Ti      3.96852399     6.51444998     1.22322999    -2.76418555     1.31172281    -0.72209536
Ti      3.77382698     2.74811001     1.23976599    -0.05081273    -1.04807537    -1.85376170
Ti     -0.01207699     6.70811901     1.11073500     2.52439821     0.48693704     2.30619297
Ti     -0.05039000     2.97156902     1.26053900    -0.19195195    -0.05105750     0.34586853
Ti      5.59271624     2.82130824     3.57415279     2.66593081     0.50849729     0.92264200
Ti      5.69702120    -0.88347978     3.66166680     0.73809817    -0.76584990    -0.10656918
Ti      1.94076423     2.76023923     3.60357584    -2.41908681     0.35468716     0.93642209
Ti      1.99913021    -0.96573578     3.65217283    -1.20535392    -0.37163587    -1.35498832
O       3.80675201     4.57131000     0.82766402     0.49801824     1.69052770    -0.63829408
O       3.83703302     0.84470199     0.84138400     0.23726072     1.90125102    -0.00955859
O      -0.11700802     4.87266200     0.89471998     0.16302677    -3.59185636    -1.31696478
O      -0.15493802     0.93758302     0.91744698     0.69790950     2.10682442    -1.49358549
O       5.51115224     4.80695422     4.09710379     0.23050231    -0.00916444    -1.41272092
O       5.56238322     0.97311320     3.93151582     0.96161376     0.97722525     1.76290659
O       1.91665322     4.83580925     4.07433584     1.04880813    -3.04367357     0.47351896
O       1.81677922     0.89736423     4.01180280     0.32218531     1.85973386     0.64163857
O       3.83322321     2.90414724     3.13706180    -2.12916526    -0.07099770     0.69628893
O       3.83369624    -0.58695377     3.17108583     1.23968407    -1.62104206    -0.08008012
O      -0.00191880     2.99070921     3.37810479    -0.58411346    -0.31909510    -1.20103909
O       0.17609124    -0.96442776     3.21634679    -2.76133779     0.24934413     0.18993826
O       5.77573102     6.51513198     1.63333702    -0.87748158     0.17777668     1.12903121
O       5.68454997     2.65945298     1.61467902     0.04152642     0.85593856     0.58771635
O       1.98336401     6.72184401     1.59046202     0.06035256    -0.82650867    -0.05902561
O       1.76092800     2.94796502     1.63373400     1.55417433    -0.76150910     0.25651906
