# total energy = -4979.92171809 eV

CRYSTAL
PRIMVEC
        4.47250250     0.00000000     0.00000000
       -0.00000726     2.98166799     0.00000000
       -2.23627761    -1.49087949     4.95478117
PRIMCOORD
6 1
Ti     -0.00019222     2.23635931     1.23869503    -0.00690367    -0.01046105    14.81670814
Ti      2.23640991    -0.74557112     3.71608546     0.00690367     0.01046105   -14.81670814
O       0.00004707     0.74540890     0.80709324     0.00566260     0.01094622    -7.09016258
O       2.23617052     0.74537923     4.14768730    -0.00566260    -0.01094622     7.09016258
O      -0.00001917    -0.74541165     3.28448372    -0.00185762    -0.00011056    -0.90173198
O       2.23623670     2.23619973     1.67029687     0.00185762     0.00011056     0.90173198
