# total energy = -19957.98003863 eV

CRYSTAL
PRIMVEC
        5.93400000     0.00000000     0.00000000
        0.00000000     9.29699974     0.00000000
        0.00000000     0.00000000     4.64899994
PRIMCOORD
24 1
Ti      4.44299299     7.02765698     2.44208199     0.65165534     0.01817899    -0.52259517
Ti      4.44348502     2.19730799     2.31084598    -1.29135067    -1.70306003     2.34896329
Ti      1.45350602     6.93231400     2.28849999    -1.24143140     1.70013720     1.37006759
Ti      1.41225999     2.54310802     2.04335202    -0.94146659    -2.46476633     1.47901607
Ti      2.87026799     4.60972002     0.10170702     1.80833209     1.75161764    -1.29658467
Ti      2.99215899     9.21524398     4.64709898    -0.16121208    -1.34853999    -0.92393141
Ti      5.84480199     4.56580000     0.11979599    -1.82786734     2.34542571    -2.66677130
Ti      0.02121599     0.11048300     4.61871799     1.14170752    -1.47007429     0.25237110
O       4.36878101     5.53648798     0.87426998    -0.17593834    -0.21810830     0.26250073
O       4.49531200     0.87503702     0.77389802     0.70358187     1.86468992     1.92953599
O       1.41222199     5.55637599     1.00109101     0.90035438    -1.00024126    -0.84232225
O       1.79614702     0.99030903     0.81687298    -2.67455763     1.01363826     1.13487687
O       4.75071898     8.52609300     3.67834398    -1.53367826    -1.25703311    -0.06103750
O       4.49353100     3.72552299     3.65316499    -0.67394424    -0.01808540     0.90554853
O       1.47413102     8.13963401     3.80552300     0.46455609     1.80967575     0.57161532
O       1.41262697     3.68278499     4.02279699     0.57142352    -0.75563156    -2.30328197
O       3.00671200     6.20446001     3.36666599    -0.83506299    -1.29044384    -0.36546342
O       3.17860200     1.25954298     3.31048901    -0.00797814     1.68719477    -2.16735387
O       5.84614298     5.99461900     3.05792498     1.64444940    -0.46983482     1.25063723
O       0.21490100     1.44519402     3.15058900    -0.05325014     0.77468267    -1.01748309
O       3.18433500     8.02932802     1.44639198    -1.62214455    -1.05190991     0.12175464
O       2.99400598     3.09625901     1.36348599     0.70202712     1.25879818     0.45659852
O       5.83893601     7.95397201     1.49670001     2.09069228     0.06739867    -0.82044035
O       5.68966902     3.32171100     1.41884698     2.36110276    -1.24370862     0.90377883
