# total energy = -19928.73505082 eV

CRYSTAL
PRIMVEC
        7.34309917     0.00000000     0.00000000
        0.00002771     4.68916667     0.00000000
        0.00000000     0.00000000    11.21496115
PRIMCOORD
24 1
Ti      2.66153647     2.77879581     4.16067062     0.48850644    -0.09922636     1.53613186
Ti      4.68158992     1.91037080     7.05429065    -0.48850644     0.09922636    -1.53613186
Ti      6.33295972     1.91037238     1.44676521     0.48867690     0.09943745    -1.53643397
Ti      1.01016674     2.77879441     9.76819612    -0.48867690    -0.09943745     1.53643397
Ti      2.66152286     0.43421253     1.44681020     0.48850644    -0.09922636    -1.53613186
Ti      4.68160353     4.25495420     9.76815119    -0.48850644     0.09922636     1.53613186
Ti      1.01015306     0.43421083     7.05424567    -0.48867690    -0.09943745    -1.53643397
Ti      6.33297333     4.25495589     4.16071554     0.48867690     0.09943745     1.53643397
O       2.32414687     1.65113525     5.72290886     1.06772040     1.01192127    -1.25011144
O       5.01897958     3.03803130     5.49205242    -1.06772040    -1.01192127     1.25011144
O       1.34746490     1.65115419     0.11546432    -1.06695730     1.01213519    -1.25120005
O       5.99566161     3.03801242    11.09949660     1.06695730    -1.01213519     1.25120005
O       5.01896597     0.69344790     0.11542792    -1.06772040    -1.01192127    -1.25011144
O       2.32416049     3.99571864    11.09953299     1.06772040     1.01192127     1.25011144
O       5.99564794     0.69342903     5.72294519     1.06695730    -1.01213519    -1.25120005
O       1.34747840     3.99573758     5.49201602    -1.06695730     1.01213519     1.25120005
O       0.26680853     2.85221699     3.02944080    -1.89794355     0.67452454     0.62137030
O       7.07631792     1.83694956     8.18552042     1.89794355    -0.67452454    -0.62137030
O       3.93836657     1.83690597     2.57807546    -1.89792787    -0.67435099    -0.62131014
O       3.40475983     2.85226064     8.63688558     1.89792787     0.67435099     0.62131014
O       0.26679486     0.50763359     2.57803966    -1.89794355     0.67452454    -0.62137030
O       7.07633154     4.18153295     8.63692137     1.89794355    -0.67452454     0.62137030
O       3.40474621     0.50767725     8.18555615     1.89792787     0.67435099    -0.62131014
O       3.93838018     4.18148930     3.02940500    -1.89792787    -0.67435099     0.62131014
