# total energy = -4987.35703806 eV

CRYSTAL
PRIMVEC
        3.80076930     0.00000000     0.00000000
        1.62792498     3.43448795     0.00000000
       -2.71438312    -1.71726674     4.98467042
PRIMCOORD
6 1
Ti      1.22084772     2.57599816     1.24616755     0.00034221    -0.00034221     0.00000000
Ti      1.49346369    -0.85877674     3.73850256    -0.00034221     0.00034221     0.00000000
O       0.40702072     0.85861748     0.81196202    -0.00008382    -0.00007662    -2.21701243
O       2.30729056     0.85860381     4.17270815     0.00008382     0.00007662     2.21701243
O      -0.40698648    -0.85859586     3.30429708    -0.00007662    -0.00008382    -2.21701243
O       3.12129769     2.57581711     1.68037309     0.00007662     0.00008382     2.21701243
