# total energy = -19905.47910367 eV

CRYSTAL
PRIMVEC
        8.34978279     0.00000000     0.00000000
        0.00002795     4.27877851     0.00000000
        0.00000000     0.00000000    12.61519497
PRIMCOORD
24 1
Ti      3.02641136     2.53560027     4.68014736     0.29899884    -0.35535564     2.78168243
Ti      5.32339957     1.74317844     7.93504774    -0.29899884     0.35535564    -2.78168243
Ti      7.20115983     1.74317996     1.62739979     0.29881218     0.35536490    -2.78221542
Ti      1.14865116     2.53559894    10.98779549    -0.29881218    -0.35536490     2.78221542
Ti      3.02639745     0.39621107     1.62745038     0.29899884    -0.35535564    -2.78168243
Ti      5.32341354     3.88256776    10.98774490    -0.29899884     0.35535564     2.78168243
Ti      1.14863719     0.39620943     7.93499715    -0.29881218    -0.35536490    -2.78221542
Ti      7.20117374     3.88256940     4.68019795     0.29881218     0.35536490     2.78221542
O       2.64276891     1.50663071     6.43743744     1.20807235     1.18475578    -2.18557914
O       5.70704208     2.77214799     6.17775765    -1.20807235    -1.18475578     2.18557914
O       1.53219120     1.50664793     0.12988049    -1.20784275     1.18503397    -2.18665180
O       6.81761985     2.77213077    12.48531422     1.20784275    -1.18503397     2.18665180
O       5.70702810     0.63275873     0.12983958    -1.20807235    -1.18475578    -2.18557914
O       2.64278283     3.64601997    12.48535520     1.20807235     1.18475578     2.18557914
O       6.81760594     0.63274151     6.43747835     1.20784275    -1.18503397    -2.18665180
O       1.53220492     3.64603725     6.17771674    -1.20784275     1.18503397     2.18665180
O       0.30338404     2.60259568     3.40767887    -2.20906437     0.69719242     0.16475687
O       8.04642689     1.67618308     9.20751622     2.20906437    -0.69719242    -0.16475687
O       4.47828589     1.67614314     2.89995877    -2.20914999    -0.69725207    -0.16496435
O       3.87152504     2.60263562     9.71523614     2.20914999     0.69725207     0.16496435
O       0.30337013     0.46320636     2.89991848    -2.20906437     0.69719242    -0.16475687
O       8.04644086     3.81557234     9.71527642     2.20906437    -0.69719242     0.16475687
O       3.87151113     0.46324631     9.20755644     2.20914999     0.69725207    -0.16496435
O       4.47829986     3.81553240     3.40763859    -2.20914999    -0.69725207     0.16496435
