# total energy = -19930.72194696 eV

CRYSTAL
PRIMVEC
        6.13518409     0.00000000     0.00000000
        0.32631426     6.52153244     0.00000000
        0.00000000     0.00000000    10.98406402
PRIMCOORD
24 1
Ti      2.41708259     3.86465392     4.07500941    -0.01047956    -1.09429945     0.68836222
Ti      4.04441550     2.65687827     6.90905474     0.01047956     1.09429945    -0.68836222
Ti      5.42414068     2.65688050     1.41697877     0.07795382     0.57387609    -0.55642858
Ti      1.03735748     3.86465194     9.56708550    -0.07795382    -0.57387609     0.55642858
Ti      2.25392559     0.60388795     1.41702279    -0.01047956    -1.09429945    -0.68836222
Ti      4.20757250     5.91764443     9.56704148     0.01047956     1.09429945     0.68836222
Ti      0.87420047     0.60388553     6.90901065    -0.07795382    -0.57387609    -0.55642858
Ti      5.58729768     5.91764685     4.07505349     0.07795382     0.57387609     0.55642858
O       2.05672520     2.29634234     5.60508379     1.47693039     1.44849475    -0.12981093
O       4.40477289     4.22518986     5.37898035    -1.47693039    -1.44849475     0.12981093
O       1.24070549     2.29636865     0.11308709    -1.25443321     1.05624068     0.19574098
O       5.22079267     4.22516360    10.87097674     1.25443321    -1.05624068    -0.19574098
O       4.24161589     0.96442370     0.11305147    -1.47693039    -1.44849475    -0.12981093
O       2.21988221     5.55710850    10.87101236     1.47693039     1.44849475     0.12981093
O       5.05763566     0.96439744     5.60511947     1.25443321    -1.05624068     0.19574098
O       1.40386237     5.55713488     5.37894467    -1.25443321     1.05624068    -0.19574098
O       0.42138825     3.96676557     2.96706977     0.45635761     0.06220581     0.57079900
O       6.04010990     2.55476662     8.01699444    -0.45635761    -0.06220581    -0.57079900
O       3.41833792     2.55470586     2.52499723     0.52155824     0.59896030    -0.08867584
O       3.04316023     3.96682633     8.45906673    -0.52155824    -0.59896030     0.08867584
O       0.25823125     0.70599941     2.52496218     0.45635761     0.06220581    -0.57079900
O       6.20326691     5.81553278     8.45910178    -0.45635761    -0.06220581     0.57079900
O       2.88000323     0.70606017     8.01702943    -0.52155824    -0.59896030    -0.08867584
O       3.58149493     5.81547202     2.96703465     0.52155824     0.59896030     0.08867584
