# total energy = -19072.05682421 eV

CRYSTAL
PRIMVEC
        5.93400000     0.00000000     0.00000000
        0.00000000     9.29699974     0.00000000
        0.00000000     0.00000000     4.64899994
PRIMCOORD
22 1
Ti      4.37491000     6.65059501     2.42778701    -0.40177307     1.37350207    -1.33316351
Ti      4.42415200     2.44764201     2.05703199     0.97273996    -0.72020431     1.91286084
Ti      1.40740701     7.23225500     2.69249798     1.39289977     1.63822964    -0.05443799
Ti      1.61739100     2.39099099     2.05070901    -0.95188316     0.14957090     1.23938377
Ti      3.08720701     4.59672300     4.47432399    -1.20102058     0.60130618     1.63956198
Ti      2.97977598     0.21908197     0.22247199     2.00907490    -0.77006908    -1.50836445
Ti      5.91339500     4.41525299     4.12960099     1.04949205    -1.62786295     0.30478999
Ti      5.90515402     0.05885102     0.23142302    -1.85984878    -1.64778026     0.77030434
O       4.25545998     5.46356799     1.01961597     0.76827239    -0.88135932    -0.36613448
O       4.53218999     0.67419103     1.35947498    -0.43691389     0.46080459     0.19160202
O       1.60784602     0.53684402     1.43034002    -1.73604009     1.84301011     0.26808414
O       4.35380302     8.45636401     4.00006099     1.17395200     1.50569693     0.51800472
O       4.20504500     4.20152099     3.18960799     2.38889562    -2.38754065    -1.05313067
O       1.45196802     8.53780899     4.14112600     0.49596933    -1.14893644    -2.52256295
O       1.67525701     3.89727302     3.27457502    -2.09920238     0.58494213     0.63041339
O       2.96183798     6.23974999     3.54717200    -2.13680863     0.16078605     0.61810423
O       2.98441999     1.64901802     3.29098798     0.21949747    -0.67234990     0.59477763
O       5.87985702     6.21553701     3.57500598     1.49367162    -0.74633136     0.08872109
O       3.02307803     7.73107002     1.65940598    -1.25648547     0.15189286    -0.07810294
O       3.06583602     2.88410899     0.96951802    -0.99323217     1.54366469    -1.41532237
O       5.92159598     7.75818601     1.63564502     0.25585314    -0.10609558    -0.30211682
O       5.87420498     2.79984000     0.86582299     0.85288974     0.69512345    -0.14327195
