# total energy = -19074.53320411 eV

CRYSTAL
PRIMVEC
        7.60600008     0.00000000     0.00000000
        0.00000000     7.60600008     0.00000000
       -1.89786986    -1.89786986     4.85670466
PRIMCOORD
22 1
Ti      3.86209999     6.60370699     1.24483699     0.16872716    -0.24947089    -1.66955546
Ti      3.83237901     2.82217800     1.14244098     0.88185554     0.16128150     0.86726144
Ti      0.32823600     6.75963399     1.01946997    -0.61617590     0.67369690    -0.62930036
Ti     -0.04606202     2.85414099     1.24517899    -1.83963579    -0.81584476    -0.94530808
Ti      5.63465523     2.82350422     3.68854482    -0.34555254     0.43326601    -0.89141619
Ti      6.11875224    -0.72481376     3.54093480    -0.89670136    -1.45133865     2.90978075
Ti      1.83137324     2.73979225     3.56195382     0.16226110     0.46015770     0.72978039
Ti      1.35574121    -1.08624680     3.91119483     1.08233456    -0.36997597    -1.66959017
O       3.99632199     4.61341600     0.75185498    -0.88330179     1.80981047    -1.21092165
O       4.17317800     0.86041199     0.75610401    -1.12262582    -0.30830315     1.36370977
O       0.08712798     4.88930002     0.73764700    -0.22000372    -0.37081749    -0.43620350
O      -0.20149001     1.01695501     0.78148700     1.10899151    -0.29880678     0.68202650
O       5.75734423     4.96732324     3.93776783     0.46027392    -0.80007489     0.35880195
O       5.18132823     0.87507920     4.03758580     1.58456195     1.76033137    -0.22286279
O       1.96213125     4.71481922     4.05956481    -0.80211635    -1.30384418     0.59179695
O       1.60771822     0.72392220     4.10134181     0.31756273     2.11275518    -0.99028158
O       3.77109420     2.94025724     3.04676580    -0.97410085    -0.72168501     0.99689471
O      -0.10224779     2.55660823     3.30046581     0.83325062     0.67193981    -0.34423922
O       5.65039000     6.55547000     1.88626898    -0.22676984     0.14932330    -1.86891681
O       5.76099799     3.13418498     1.61813598    -1.05163686    -0.80581334     0.85054438
O       2.00136101     6.64456101     1.96860202     0.47260365    -0.02593293     0.08459961
O       1.76027399     2.99237098     1.47258498     1.90619731    -0.71065421     1.44339960
