# total energy = -4988.07500340 eV

CRYSTAL
PRIMVEC
        3.56017542     0.00000000     0.00000000
        0.00000000     3.71884075     0.00000000
        0.00000000    -0.00006500     4.84224013
PRIMCOORD
6 1
Ti      1.78008755     1.85938782     2.42112001     0.00000000     0.00000000     0.00000000
Ti      0.00000000     0.00000000     0.00000000     0.00000000     0.00000000     0.00000000
O       1.78008755     0.72473461     0.94368126     0.00000000    -0.30298277    -0.04254715
O       1.78008755     2.99404104     3.89855871     0.00000000     0.30298277     0.04254715
O       0.00000000     1.13462721     3.36480233     0.00000000     0.30288532    -0.04194756
O       0.00000000     2.58414844     1.47743769     0.00000000    -0.30288532     0.04194756
