# total energy = -19074.00707816 eV

CRYSTAL
PRIMVEC
        5.93400000     0.00000000     0.00000000
        0.00000000     9.29699974     0.00000000
        0.00000000     0.00000000     4.64899994
PRIMCOORD
22 1
Ti      4.41296901     7.01767902     2.17615503     0.38357377    -0.30847310     0.02424166
Ti      4.45154301     2.25537000     2.21684500     0.08448520     1.19305864     0.67778598
Ti      1.52695201     6.95591398     2.66068702    -1.36962305     1.06287490     0.22135792
Ti      1.66262200     2.51528700     2.08538901    -1.79619519    -0.59798020     0.72433119
Ti      3.05225898     4.64483998     4.51480398     0.80816179    -0.52811250     0.30305013
Ti      2.95332299     9.28266899     4.60643901    -0.84918144     0.27780497     0.09254946
Ti      0.02240600     4.61912302     4.46371298    -1.01970761    -0.68403608     0.05661623
Ti      5.87254099     9.17892898     0.30153800     0.48768806     0.18571522     0.53778396
O       4.35784699     5.69422302     0.75178497     0.12647210     0.01758198     1.26480633
O       4.30138600     0.78941599     1.14688300     0.73493391    -0.17970012    -1.40877197
O       1.57958298     0.99163398     0.98306401    -1.14782649    -0.18167602    -1.04139847
O       4.44986499     8.27939300     3.95017799    -0.17703980     0.71071231    -0.25531372
O       4.41245099     3.82172000     3.50964799     0.30503682    -1.01993900     0.71109386
O       1.24455298     8.12110402     4.09502000     1.71629016     0.65977257    -0.72067046
O       1.47149302     3.72509499     3.69416802    -0.04501001     0.25746677    -0.41193047
O       2.97884902     5.91108001     3.16968097    -0.03782737     1.21194726    -1.11153279
O       2.88022499     1.41660501     3.21205902     0.44115313    -0.12174487     0.68168738
O       5.67704100     6.09740401     3.29533401     1.74780727    -0.29957991    -0.96795257
O       2.82782998     7.98038399     1.60083098     0.06626095    -0.90075342     0.32128466
O       3.10241498     3.16283702     1.27087600     0.61487364     1.40301243    -0.88259782
O       0.12913301     8.18173303     1.75411400    -1.10659010    -1.48442388     0.31308952
O       5.90951502     3.27809299     1.25327498     0.03226479    -0.67352798     0.87048972
