# total energy = -4990.06053339 eV

CRYSTAL
PRIMVEC
        3.05677185     0.00000000     0.00000000
        0.23932585     4.78352006     0.00000000
       -0.00000132    -0.00006216     4.79100171
PRIMCOORD
6 1
Ti      1.64804808     2.39172879     2.39550075     0.00000000     0.00000000     0.00000000
Ti      0.00000000     0.00000000     0.00000000     0.00000000     0.00000000     0.00000000
O       1.57502667     0.93222537     0.93369560    -0.06039729    -0.26898480    -0.27701719
O       1.72106943     3.85123221     3.85730584     0.06039729     0.26898480     0.27701719
O       0.07302076     1.45947822     3.32919732     0.06042917     0.26859116    -0.27660221
O       0.16630366     3.32397957     1.46180412    -0.06042917    -0.26859116     0.27660221
