# total energy = -19517.37013592 eV

CRYSTAL
PRIMVEC
        5.93400000     0.00000000     0.00000000
        0.00000000     9.29699974     0.00000000
        0.00000000     0.00000000     4.64899994
PRIMCOORD
23 1
Ti      4.45547702     6.95295202     2.35726800     1.00812272    -0.35966816    -0.08971816
Ti      4.40613600     2.34873999     2.27686799     0.73333160     1.00056779     0.44666943
Ti      1.43497799     7.02471401     2.28913601    -0.66951834    -0.21732566     0.17296023
Ti      1.47640400     2.31447799     2.33031399    -1.07301019     1.04421588    -0.16826951
Ti      2.89047197     4.64128798     0.07519598     1.41929549    -0.49471668    -0.22768130
Ti      2.95423402     0.06901900     0.08597299     1.43206488    -0.77452763    -0.66900360
Ti      0.03016802     4.66423199     0.01461598    -1.62561477    -0.16717653    -0.43514754
Ti      0.04310900     9.28326400     4.51580598    -1.31001714    -0.01264983    -0.29945752
O       4.59445601     5.51712099     1.03847500    -1.43597142     0.20671086    -0.52088795
O       4.41407102     1.01483301     0.81393901    -0.08867738    -0.33458266     0.17715370
O       1.55701600     5.63238199     0.94627402     0.22586250    -0.21425448    -0.76214699
O       1.47799502     0.84896298     0.78312100    -0.20369135     1.14675383     1.57128194
O       4.51421501     8.31755002     3.84179302    -0.86480064    -0.34391706    -0.65110718
O       4.51722798     3.71182402     3.70570699    -0.62495262     0.27588281    -0.11804582
O       1.39811598     8.22205702     3.85246600     1.03724845     0.29619736    -0.68042008
O       1.48580399     3.67861301     3.78477899     0.99732846     0.66217604    -0.37248228
O       2.86717299     1.44973198     3.21519302     1.30570000    -0.81584219    -0.12744912
O       0.05882699     5.96807002     3.23610097     0.29545946     0.39883738     0.12722697
O       5.90277600     1.35657102     3.08889799     0.29386537    -0.38409159     0.44442846
O       3.02199099     7.84165600     1.42720401    -0.31089122    -0.00925829     0.86116870
O       2.96574903     3.44017400     1.39892001     0.02648443    -2.11486889     1.27250448
O       5.89337099     7.71268502     1.48620500     0.20013706     2.11553558    -0.89138971
O       0.15547402     3.26788500     1.32221101    -0.76775431    -0.90399815     0.93981286
