# total energy = -19071.20870744 eV

CRYSTAL
PRIMVEC
        5.93400000     0.00000000     0.00000000
        0.00000000     9.29699974     0.00000000
        0.00000000     0.00000000     4.64899994
PRIMCOORD
22 1
Ti      4.56476001     6.86870398     2.39563198    -0.55026050    -0.04392037    -0.41138771
Ti      4.38535500     2.36533700     2.31089800     0.64690574    -0.24897595    -1.38536283
Ti      1.52641998     6.97997001     2.44473899     0.85927842    -0.25002368     1.06721878
Ti      1.70768102     2.49347098     2.08581198    -2.95619535     0.53993469    -0.34897853
Ti      2.98387499     4.49315301     4.36341600    -5.63442117     3.11353355     2.83762657
Ti      3.03780201     9.09310198     0.08516801    -1.51786803     0.89493398    -1.32682959
Ti      5.76544001     4.72790800     0.15207797     1.52780277    -0.09537356    -1.12149350
Ti      5.86452501     9.13556798     0.21538303     1.76495910     0.26117301     1.13916804
O       4.28909999     5.67060801     0.65938999     0.16704309     0.74799152     2.93044163
O       4.42454201     1.02938702     0.71873299     0.10970747    -0.12312452     0.86102112
O       1.31124799     0.92385003     0.64183099     1.94299084     1.67092225     1.44791754
O       4.61473598     8.19222402     3.93334100    -1.53397779     0.25585648    -1.79715910
O       4.29903900     3.83872702     3.69287598     4.96963778    -2.97308159    -2.55194682
O       1.57842302     8.33676698     3.66357200    -0.55997748     1.65716016     1.45574989
O       1.13690700     3.64456802     3.65607599     1.97203660     0.61279078    -0.77908594
O       2.95526999     6.28253699     3.49290699     0.17956411    -1.89985954    -1.86411296
O       2.82990399     1.64237901     3.18778201     1.16753298    -1.87411661     0.38296801
O       0.10649200     6.10571998     3.33450302    -0.51941265    -0.99398885    -0.38289320
O       2.88097901     7.94793500     1.42106799     1.00796769    -0.80863127     0.63942408
O       3.14344198     3.54526802     1.56418498    -0.89010262     0.57756949    -2.39744454
O       0.16645302     7.98637502     1.65387798    -2.25895305     0.30904414    -1.45666983
O       5.80949200     3.23963302     1.09275700     0.10574206    -1.32981361     3.06182890
