# total energy = -19517.70539542 eV

CRYSTAL
PRIMVEC
        5.93400000     0.00000000     0.00000000
        0.00000000     9.29699974     0.00000000
        0.00000000     0.00000000     4.64899994
PRIMCOORD
23 1
Ti      4.47816999     7.05086600     2.26907400     1.01698892    -0.34461048     0.03981072
Ti      4.51805398     2.25810701     2.39830702     0.10386644     0.54793854    -0.82780142
Ti      1.44299900     7.08465000     2.22514700    -0.40676358    -0.31004945     0.17670273
Ti      1.50478901     2.19904501     2.30973699    -0.42398638     1.51908210    -0.18893399
Ti      2.99020199     4.42879903     0.11898900     0.21141315    -0.31343096     0.63136650
Ti      2.91614702     9.26415202     4.52860101     0.75298744    -0.85939284    -0.05484062
Ti      0.05509000     4.63861997     0.01972900    -0.18536607     0.22461320    -0.05630487
Ti      0.01129502     0.16402701     0.06541499    -1.50050459    -1.06077097    -0.18443198
O       4.46138899     5.64878802     0.83021100    -1.15363565    -0.52833310     0.38826449
O       4.37801097     0.96848602     1.03592500     0.42570131    -1.04089093    -1.21638833
O       1.43092100     5.55208701     0.97700498     0.99757220    -0.22787696    -0.40549551
O       1.49275298     0.95638601     0.87689100     0.40568680    -0.00202346     0.53102890
O       4.51765000     8.46825700     3.82234602    -0.78314186    -0.40337795    -1.31359663
O       4.41348897     3.62809098     3.67002198    -0.65362712     1.86488635     1.82962340
O       1.33682302     8.49245998     3.57102302     0.98656247    -0.07411002     1.07685219
O       1.47000598     3.66730301     3.77250499     0.70018338     1.03402454     0.19405640
O       2.86965203     1.43713899     3.26929002     0.97564659    -0.55219963     0.28592349
O       5.84287102     6.08040001     3.28725199     0.06064540     0.44851214    -1.05173585
O       0.04569800     1.46426499     3.30116702    -0.17522177    -0.15120021    -0.11857624
O       2.91078000     7.88244699     1.27043001     0.03712726    -0.50483038     1.01926100
O       3.01692100     3.13818403     1.42987498    -0.51582159     1.12727463    -0.54632080
O       0.02741699     7.90922002     1.37635097    -0.65959234     0.41537704    -0.08323024
O       0.00041202     3.31615898     1.48144102    -0.21672068    -0.80861096    -0.12523360
