# total energy = -4980.53156330 eV

CRYSTAL
PRIMVEC
        4.40942514     0.00000000     0.00000000
        0.00000000     2.62062052     0.00000000
        0.00000000    -0.00010461     5.97462641
PRIMCOORD
6 1
Ti      2.20471257     1.31025779     2.98731293     0.00000000     0.00000000     0.00000000
Ti      0.00000000     0.00000000     0.00000000     0.00000000     0.00000000     0.00000000
O       2.20471257     0.51069989     1.16436660     0.00000000    -0.24096156     2.13455403
O       2.20471257     2.10981569     4.81025927     0.00000000     0.24096156    -2.13455403
O       0.00000000     0.79951652     4.15168085     0.00000000     0.24078621     2.13385161
O       0.00000000     1.82099907     1.82294502     0.00000000    -0.24078621    -2.13385161
