# total energy = -4987.23313872 eV

CRYSTAL
PRIMVEC
        3.67143081     0.00000000     0.00000000
        0.00000000     3.45154874     0.00000000
        0.00000000    -0.00006798     4.90886927
PRIMCOORD
6 1
Ti      1.83571525     1.72574049     2.45443474     0.00000000     0.00000000     0.00000000
Ti      0.00000000     0.00000000     0.00000000     0.00000000     0.00000000     0.00000000
O       1.83571525     0.67264281     0.95666637     0.00000000    -0.74769893    -0.13548227
O       1.83571525     2.77883817     3.95220315     0.00000000     0.74769893     0.13548227
O       0.00000000     1.05307054     3.41110207    -0.00000000     0.74776861    -0.13545322
O       0.00000000     2.39841044     1.49776741    -0.00000000    -0.74776861     0.13545322
