# total energy = -39030.44260639 eV

CRYSTAL
PRIMVEC
        5.93200024     0.00000000     0.00000000
        0.00000000     9.29399984     0.00000000
        0.00000000     0.00000000     9.29399984
PRIMCOORD
46 1
Ti      4.35352002     7.12782398     6.99263798     2.69814828    -3.18967500     0.93473673
Ti      4.46295800     6.98109800     2.12580000     0.22518270    -1.21245685     1.87085003
Ti      4.33003698     2.22410399     7.05958102     2.10464772     0.63170563    -0.27429593
Ti      4.75983702     2.07205702     2.75701300    -2.01307991     1.03293748    -0.28442248
Ti      1.49174299     7.09985601     6.87947798    -2.00791147    -1.29058242     1.45999659
Ti      1.52901999     6.81624701     2.27760598    -0.56185104    -0.08762426     1.88128485
Ti      1.41969202     2.34252999     6.89368999    -1.46931890    -0.89654915    -0.27107074
Ti      1.57555102     2.68794499     2.00759699     0.30106292    -0.71747535     0.30239115
Ti      3.10187400     4.64065598     4.55999000     1.21415507     1.18021264     0.80950802
Ti      2.97621599     4.91762101     9.24649602     0.83189873    -0.64664400    -1.51977939
Ti      2.86010397     9.16555799     4.81985202    -0.82822103     1.50690741    -1.39089868
Ti      3.01581898     0.01002801     0.05815901    -1.16202850     0.72998814     0.35969901
Ti      0.18826698     4.65428801     4.72332501    -1.88227781     0.85470391     0.47513721
Ti      0.01466800     4.44596400     9.05871901    -1.03911661     1.26671024    -1.35756071
Ti      5.81216398     9.09956498     4.70137098     1.15982147     0.52563730     0.24917856
Ti      5.86363700     9.21692798     0.23703802     1.94984643     0.81304149    -1.73062869
O       4.46690100     5.82123799     5.41363800     0.48572836    -1.39941957     0.59500774
O       4.43804799     5.49138700     0.97282898    -0.25294368    -0.26936764     0.00970669
O       4.48849699     0.99784599     5.54917601    -1.36771889    -0.98042628    -1.52995710
O       4.44962898     0.72391998     1.14302799    -0.89501934     0.07874701    -0.18840100
O       1.65052702     5.74816798     5.34470599    -0.88018870    -0.30794294     1.21162510
O       1.36392399     5.42130599     0.67909200     0.34498664     0.76752986     3.16724931
O       1.29076100     0.75324402     5.69377200     1.72209854     0.97979867    -1.50365368
O       1.50881902     0.79839401     1.03836001     0.18721700     0.57155105    -0.94920176
O       4.39331399     8.37656900     8.43587199     0.27078020     0.75495613     0.61065523
O       4.32998401     8.32697498     3.89560701     0.00994683     0.62641712    -1.18217722
O       4.29998601     3.78337101     8.39912502     0.07928565    -1.08691292    -0.03633716
O       4.86173899     3.83013800     3.58447503    -2.28487672    -0.93167969     0.55511758
O       1.21971001     8.09691702     8.32891299     1.13017741     2.15164005     1.96057873
O       1.57806001     8.26410603     3.69648402    -0.39460175     1.20634534     1.12762893
O       1.55720301     3.75919501     8.19994403    -0.94261305    -0.03060205     1.17528486
O       1.50584599     3.98408899     3.64951202     0.73919835    -1.11573654    -1.60978577
O       2.90543499     6.00217301     7.77064200    -0.04342595     0.99039676    -0.26573852
O       3.11225498     6.18141201     3.33339698    -0.59459894    -0.40089067    -2.44972795
O       2.90440802     1.39378900     7.85440700    -0.68431941    -0.73267957     0.57372466
O       2.82611899     1.94436200     3.01978099     1.93304581    -1.30144688     0.99661729
O       5.71571698     6.09153602     8.09518497     0.26050375    -1.15951345    -1.77783288
O       5.92816201     6.08586202     3.10462202     0.96786592     0.07096299     0.20725439
O       0.02854599     1.47420199     7.98775998    -1.07712293     0.10399833     0.12338446
O       2.96659899     8.08234502     6.25740901    -0.49932693     0.46307076    -0.67760369
O       3.02065402     7.86679001     1.26178802    -0.94541118    -1.48109224     0.82663928
O       2.83585501     3.32557098     6.03672802     0.65566857    -0.49024142    -0.67312791
O       5.80084599     8.18848400     6.26621700     0.01025845    -2.18395883    -0.36072102
O       0.11135498     7.91688600     1.59101702    -0.47172433     0.33097849    -1.08753667
O       5.68735102     3.02030201     5.93840699     2.34493334     2.45736464     0.21183070
O       5.72919899     2.75483300     1.39481799     0.67123841     1.81731655    -0.57462711
