# total energy = -19075.02318612 eV

CRYSTAL
PRIMVEC
        7.60600008     0.00000000     0.00000000
        0.00000000     7.60600008     0.00000000
       -1.89786986    -1.89786986     4.85670466
PRIMCOORD
22 1
Ti      3.68494801     6.90311098     1.26537801     0.95286713    -0.72022925    -1.49090897
Ti      3.80419900     2.96645998     1.12376800     1.55771166    -0.19386022    -0.00198541
Ti     -0.24077300     6.46675698     1.04924900     0.62888564     0.27804845     0.80655459
Ti      0.06274799     2.63373100     1.27033502    -1.82826766     0.05453389    -0.15364995
Ti      5.60519821     2.64887822     3.55524582     1.18814578     1.13158612     0.34287859
Ti     -1.42502078    -1.00163178     3.79556780    -0.81764865    -1.37232219    -0.68039848
Ti      1.94940220     3.00161523     3.62632183    -0.38929216    -0.27643380     0.65600462
Ti      1.63176621    -0.75837275     3.64672580     0.06196978    -1.14066726    -0.57385681
O       3.93587999     4.79699399     0.65440001    -0.49877543     0.77492641     0.27225036
O       4.20120799     1.01978002     0.85811102    -1.63052121     0.59446678     0.48988738
O      -0.23792000     4.65544501     0.76821799     0.91157391    -1.06024543    -0.65269458
O       7.28921998     0.72062400     0.77931902     1.21497036     2.30978532     0.88605236
O       5.72193920     4.74210524     4.03450683     0.68230855    -1.18332496    -0.75019393
O       5.58997923     0.71256421     4.15782979     0.23454280     1.89537939    -0.99934883
O       1.89743922     5.03141121     4.14459983    -0.46723570    -1.75603069    -0.47560567
O       2.25991124     0.96607324     3.96620582    -0.64061733     0.75241048     0.15172908
O       3.84917425     3.17612323     3.15312482    -0.66968752    -0.77189868    -0.46704081
O       0.06244022     2.66687622     3.30266782     0.18459139     0.28363238    -0.41157335
O       5.59794102     6.58903598     1.95686699    -0.17601265    -0.08956364     0.36939618
O       5.81283000     2.88467198     1.58973900    -1.19439896    -0.44701370     1.49506336
O       1.80692599     6.58434000     1.69385500     0.23476906     0.55035692     0.60373921
O       1.93874500     2.73323399     1.46244801     0.46012119     0.38646343     0.58370106
