# total energy = -19515.77496075 eV

CRYSTAL
PRIMVEC
        5.93400000     0.00000000     0.00000000
        0.00000000     9.29699974     0.00000000
        0.00000000     0.00000000     4.64899994
PRIMCOORD
23 1
Ti      4.50458202     6.84245399     2.26055298     3.28879003     2.25861032     0.33126028
Ti      4.38280802     2.21803099     2.47634098     1.40552517     0.84791106    -0.92671283
Ti      1.64938903     7.04343201     2.16621602    -3.64957842     1.78172733     0.34103768
Ti      1.39219502     2.38202302     2.27072599    -0.49801901     0.45131079    -0.69032731
Ti      2.91484598     4.37730399     0.09428399     0.29392528     0.87635235     1.16239746
Ti      2.98045798     0.00211401     4.46472497    -0.39131202    -2.98923635     0.56163121
Ti      0.05037699     4.70173399     0.03244301    -0.54264104     1.12716742     0.27402108
Ti      5.92739402     0.25967601     0.09391399     1.15790625    -3.21054799     0.03172460
O       4.41892998     5.70930499     0.78635099    -0.22927204    -1.64564804    -1.21759238
O       4.43390299     0.88510499     1.04512602    -0.25136836     0.16556419    -1.04877394
O       1.61934298     5.43774001     1.03517098    -1.27657556     0.57421060    -0.95920798
O       1.55546001     0.99989502     0.96399003    -0.52519610    -0.07737326    -0.71539969
O       4.39913801     8.14166700     3.64314300    -0.95605761     1.98167053     1.17051855
O       4.24295801     3.58675800     3.84128702     1.81859722     0.54181931    -0.19513935
O       1.27309198     8.39444598     3.54512302     1.88229684     1.11469422     1.84276586
O       1.42989498     3.76304700     3.74271601     0.50596655     0.03695088     0.45109585
O       2.93673101     1.27134199     3.18178802    -0.81417997     0.98984912    -0.06569197
O       0.19629698     6.06264299     3.12396001    -1.53205024    -1.34647771     1.10909821
O       0.13002203     1.62904999     3.39924098    -1.42353653    -1.01567483     0.07129055
O       2.98925598     7.95492099     1.35458501     0.44124697    -0.62105303    -0.03605614
O       2.96173501     3.33859298     1.59003100     0.19215481    -0.99848905     0.06751694
O       0.05984301     7.94542601     1.36801299    -0.21631367    -0.40252075    -0.52997912
O       5.71388899     3.38351399     1.57798799     1.31969092    -0.44081683    -1.02947780
