# total energy = -19519.07333775 eV

CRYSTAL
PRIMVEC
        7.60600008     0.00000000     0.00000000
        0.00000000     7.60600008     0.00000000
       -1.89786986    -1.89786986     4.85670466
PRIMCOORD
23 1
Ti      3.80781503     6.62200499     1.15394000     0.19386819     0.90519140     0.97596644
Ti      3.84219800     2.80724901     1.16693903     0.10582099    -0.89177204     1.84573188
Ti     -0.00603802     6.72472602     1.20956002    -0.37513720     0.78572402    -0.39880782
Ti     -0.00614798     2.89203998     1.08742797     0.30167613    -1.03575567     1.05743470
Ti      5.59458624     2.91326925     3.74121881    -0.71418459     0.04138398    -0.77913814
Ti      5.71751624    -0.95754676     3.56872481    -1.29273932     0.32762474     0.59831855
Ti      1.95393424     2.77976820     3.75673482     1.37659485     0.11167591    -1.17643954
Ti      1.87244623    -1.00141275     3.58084979     1.01215936     0.32934995     0.40422359
O       3.94318698     4.65619300     0.83156998    -0.70500755     0.89311441     0.72309012
O       3.94633902     0.93652297     0.73549298    -0.36506645    -0.46503123    -0.11486639
O      -0.02120397     4.80124398     0.82453600     0.60225954     0.30817820     0.30915470
O      -0.06879400     0.98652499     0.77506898     0.13803615    -0.39272407    -0.18246277
O       5.51278221     4.81686725     4.01027480     0.92328966    -0.63393812     0.37249642
O       5.68356322     0.98441124     4.09328779     0.49195198     0.03144743    -0.71520326
O       1.88007120     4.67667221     4.04810182    -0.51300495     0.61685724    -0.29979614
O       1.95492623     0.92440021     4.10547882    -0.79028850    -0.60814454    -0.29095617
O       3.83787621     2.68331824     3.29968580    -0.88296240     0.38368098    -0.52570080
O       3.78776820    -0.94118476     3.17838880    -0.58106490    -0.01903003    -0.43204011
O      -0.05324375    -0.85211978     3.24953382     1.16329374    -0.37548713    -0.38893246
O       5.70872798     6.64048100     1.57742399    -0.22847320     0.01369550     0.30534870
O       5.81941799     2.80413798     1.81473400     0.15337047     0.34338818    -0.58578005
O       1.87651301     6.87823103     1.55023502     0.23418233    -0.98872117     0.50442826
O       1.81848899     2.76727702     1.84345499    -0.24857435     0.31929282    -1.20606997
