# total energy = -4988.30486445 eV

CRYSTAL
PRIMVEC
        2.93010304     0.00000000     0.00000000
        1.13010039     4.44976962     0.00000000
       -0.00000727    -0.00006016     4.62789029
PRIMCOORD
6 1
Ti      2.03009797     2.22485464     2.31394520     0.00000000     0.00000000     0.00000000
Ti      0.00000000     0.00000000     0.00000000     0.00000000     0.00000000     0.00000000
O       1.68528994     0.86718278     0.90190768    -2.17830985     1.01540641     1.04447042
O       2.37490594     3.58252650     3.72598272     2.17830985    -1.01540641    -1.04447042
O       0.34480494     1.35764751     3.21585381     2.17764240    -1.01495749     1.04388601
O       0.78528807     3.09206186     1.41203659    -2.17764240     1.01495749    -1.04388601
