# total energy = -4986.83836667 eV

CRYSTAL
PRIMVEC
        4.19685474     0.00000000     0.00000000
        1.03306260     4.06772312     0.00000000
       -2.61499689    -2.03389128     5.39912234
PRIMCOORD
6 1
Ti      0.77466067     3.05094811     1.34978050    -0.00043246     0.00043246     0.00000000
Ti      1.84025998    -1.01711612     4.04934150     0.00043246    -0.00043246     0.00000000
O       0.25830966     1.01692499     0.87947285    -0.00071245    -0.00134160    -1.28110945
O       2.35661081     1.01690691     4.51964915     0.00071245     0.00134160     1.28110945
O      -0.25827967    -1.01690166     3.57903385    -0.00134160    -0.00071245    -1.28110945
O       2.87320013     3.05073350     1.82008815     0.00134160     0.00071245     1.28110945
