# total energy = -4988.08144311 eV

CRYSTAL
PRIMVEC
        2.81151216     0.00000000     0.00000000
        0.65708704     4.35593649     0.00000000
       -0.00000413    -0.00005718     4.41772999
PRIMCOORD
6 1
Ti      1.73429728     2.17793957     2.20886494     0.00000000     0.00000000     0.00000000
Ti      0.00000000     0.00000000     0.00000000     0.00000000     0.00000000     0.00000000
O       1.53381173     0.84889667     0.86095048    -2.13119026     1.13977431     1.20039529
O       1.93478283     3.50698248     3.55677936     2.13119026    -1.13977431    -1.20039529
O       0.20048375     1.32901974     3.06981636     2.13136098    -1.14122133     1.20182997
O       0.45659876     3.02685950     1.34791348    -2.13136098     1.14122133    -1.20182997
