# total energy = -39034.75999371 eV

CRYSTAL
PRIMVEC
        7.60600008     0.00000000     0.00000000
        0.00000000     7.60600008     0.00000000
       -3.79573973    -3.79573973     9.71340985
PRIMCOORD
46 1
Ti      2.03535747     4.61623043     5.96370463    -0.11248966     0.97009558     2.20564018
Ti      3.89186700     6.70785998     1.27794099     0.56433190     1.96368925    -1.88583005
Ti      1.83142743     0.70463946     6.04642360     1.15593370    -0.73062320     0.04013596
Ti      3.78417498     3.04612698     1.35593198     0.24813983    -1.90750086    -1.82920354
Ti     -1.80472954     4.73932447     6.02492763    -0.07398558    -0.47856347     1.18238805
Ti      0.03895898     6.74555999     1.16734602    -0.09065816    -0.35417396    -0.59126113
Ti     -1.86868955     0.90107646     6.03596865    -0.96570902    -0.15042990     0.95439976
Ti     -0.09305000     2.97546297     1.29351701    -0.51042767     0.54278450    -1.67386874
Ti      3.79549943     0.99878544     8.44276664     0.07797747    -0.97031232     0.44603411
Ti      5.46917801     2.81685199     3.76431999     0.88517613    -0.26449591    -1.09092899
Ti      3.80507944    -2.85102753     8.48226263     0.61833794     1.02696043    -0.07652429
Ti      5.75355998    -0.99324998     3.58544300    -0.17483199    -0.07793402     0.09957218
Ti      0.00595843     1.17480943     8.40904461     0.01370013    -1.06375653     2.45984987
Ti      1.70391598     2.75996501     3.54377500    -0.03658835    -0.41185771     0.71868865
Ti      0.06319445    -2.86554053     8.53243662    -0.60478154     0.90732670     0.94321803
Ti      1.82916398    -1.10750702     3.52559300     0.55539037     0.97981975     0.12257327
O       2.01195646    -1.12645453     5.85470660    -0.82523058     1.44192147    -1.94964460
O       3.82613498     0.93303199     0.92620899    -0.22102728     1.01882854    -1.15838962
O      -2.09249253     2.83952342     5.66691165     0.40577062    -1.16544267     0.24654729
O      -0.25262398     4.90064500     0.86640201     1.00728480    -3.14849414    -0.93153030
O      -1.74717855    -1.04842957     5.67169065     0.05818974     1.30010245    -0.86578409
O       0.01317800     0.95698901     0.75597299     0.00023217     1.33600792     0.40157175
O       3.80415444     2.89804043     8.93675360    -0.14498713    -0.02577403    -0.65038984
O       5.39156099     4.63162801     4.02262601     1.00772240     2.14751240     0.52324771
O       4.05337047    -0.87778557     8.87125363    -0.79542479     0.16514896     1.00797951
O       5.94068700     0.93628299     4.05755499    -0.58483337    -0.98040468     0.41315946
O       0.24991846     2.99252645     8.93292860    -0.10571249    -2.07091715     0.04777574
O       1.94128701     4.72004998     4.10581199    -0.16926170    -1.10964534    -1.38948920
O      -0.07405957    -0.60186657     9.16089462     0.29451663     0.14527175    -0.07895269
O       1.70335902     0.87483101     4.06480101    -0.17073828     0.08062160     0.13459884
O       1.94930547     1.02315543     7.96015360    -1.13032190     0.45707161     1.24764473
O       3.66238002     2.82451897     3.28752002     0.77532544    -0.18692698     0.62226350
O       1.90763345    -2.77297558     7.90596765     1.58354662    -0.26087219     1.97056798
O       3.93678499    -0.90411399     3.07876102    -1.08501776    -0.24946678     2.71450848
O      -1.91361654     1.22293746     8.03172964    -0.17653227    -0.04479198    -0.22986082
O      -0.16953902     3.07167301     3.25081798     1.29224104    -0.33472947     0.01880428
O      -1.80810357    -3.06548153     8.21252961     0.16784039     0.86481889    -1.25934968
O      -0.05104301     6.33511302     3.12503000     1.53817204     0.53973286     1.01857452
O       3.93710245     4.90589047     6.50006562    -0.28886895    -1.06306028     0.13431782
O       5.80139602     6.65698900     1.50328202    -1.10785688     0.22731929     1.14034792
O       3.68353145     0.70637146     6.52749462     2.44591757     0.84481648    -1.33798047
O       5.68322899     2.67312099     1.60679602    -0.71252340     0.85408633     0.36253905
O       0.13465444     4.69051443     6.49546162    -1.73872021    -0.67739337    -0.88215791
O       2.00424402     6.56231401     1.58182399    -1.32746980    -0.46672867     0.86689789
O      -0.01790656     0.96220045     6.64082761    -0.12857449    -0.21102826    -3.76469369
O       1.91092102     2.81904098     1.65821999    -1.41317267     0.59138686    -0.39800717
