# total energy = -19518.27670181 eV

CRYSTAL
PRIMVEC
        7.60600008     0.00000000     0.00000000
        0.00000000     7.60600008     0.00000000
       -1.89786986    -1.89786986     4.85670466
PRIMCOORD
23 1
Ti      3.72502800     6.73514499     1.22666700     1.26245403    -1.10604065     0.16350140
Ti      3.77923998     2.82339998     1.15918600     0.36442393     1.29564878     1.03031907
Ti     -0.03399202     6.67120900     1.23387497    -0.92235480    -0.87137110    -0.44776421
Ti      0.03761000     2.85286700     1.15776500    -0.65582901     0.66989501    -0.59968175
Ti      5.68748521     2.88817524     3.50133080    -1.23085465    -0.69973678     1.90767903
Ti      5.75758824    -0.97791278     3.62256182    -0.89733128     0.26929950     0.43652797
Ti      1.94437020     2.84524023     3.67973683     1.32468246    -0.31238247     0.60062586
Ti      1.90869424    -1.00239575     3.66522282     0.40598608     0.73783309    -0.55460541
O       3.96294101     4.66657202     0.70717602    -0.86681124     0.93202884     1.95496652
O       3.74890199     0.98490099     0.89868998    -0.32737380    -1.34813942    -1.03494397
O       7.29159201     4.77021598     0.71400600     1.29293087     0.98506069     1.10853745
O       0.10925102     0.98319598     0.85490701    -0.30684328    -1.37709339    -0.86409230
O       5.76733224     4.72651224     3.90605382     0.68331951     0.90792063     0.83495038
O       5.95946020     1.05703822     4.15695882     0.06707188    -0.69965734    -1.29030269
O       1.75952124     4.75372920     4.03564980    -0.26912929     0.51280209     0.68056097
O       1.86286622     0.95591325     4.01857479    -0.48593688    -1.11764405     0.38801843
O       3.82088422     2.82437620     3.38501383    -0.22127873     0.31334534    -1.56556226
O       3.86248623    -0.95949678     3.33401083    -1.73743080     0.20486943    -0.44797453
O      -0.07540077    -0.79012879     3.21715780     1.94546527    -0.62570493    -0.70551303
O       5.62634000     6.66217102     1.62032799     0.62295153     0.52929983     0.06853998
O       5.70785902     2.58045200     1.63888099     0.49723225     0.61271571    -0.15119609
O       1.89981798     6.58402297     1.66884999    -0.38600372    -0.27919080     0.36175383
O       1.83966201     2.79706002     1.83800198    -0.15934058     0.46624248    -1.87434518
