# total energy = -19922.82270385 eV

CRYSTAL
PRIMVEC
        4.96159631     0.00000000     0.00000000
        2.48502767     4.65937643     0.00000000
        0.00000000     0.00000000     9.18935143
PRIMCOORD
24 1
Ti      3.27096514     2.76114216     3.40918385     5.54751888    -5.35461434     1.24171653
Ti      4.17565897     1.89823439     5.78016767    -5.54751888     5.35461434    -1.24171653
Ti      5.29145993     1.89823605     1.18545520   -11.64536255     3.29081761     2.45963261
Ti      2.15516433     2.76114072     8.00389638    11.64536255    -3.29081761    -2.45963261
Ti      2.02845150     0.43145410     1.18549206     5.54543295    -5.35547875    -1.24011551
Ti      5.41817271     4.22792263     8.00385957    -5.54543295     5.35547875     1.24011551
Ti      0.91265045     0.43145231     5.78013081    11.64474831    -3.29197280     2.45693372
Ti      6.53397374     4.22792437     3.40922067   -11.64474831     3.29197280    -2.45693372
O       2.44539709     1.64064568     4.68925571    -1.44175589     0.20735106    -1.52707772
O       5.00122708     3.01873090     4.50009581     1.44175589    -0.20735106     1.52707772
O       1.78548116     1.64066444     0.09460953     2.55538850     0.37231105    -2.68365908
O       5.66114307     3.01871218     9.09474170    -2.55538850    -0.37231105     2.68365908
O       3.75871334     0.68904266     0.09457970     1.44166333    -0.20751690    -1.52700984
O       3.68791082     3.97033387     9.09477153    -1.44166333     0.20751690     1.52700984
O       4.41862933     0.68902394     4.68928549    -2.55675427    -0.36988649    -2.68255274
O       3.02799479     3.97035265     4.50006599     2.55675427     0.36988649     2.68255274
O       1.69180095     2.83409684     2.48227308     0.30797405    -4.30084989    -3.56567609
O       5.75482322     1.82527975     6.70707840    -0.30797405     4.30084989     3.56567609
O       3.63454421     1.82523623     2.11243187     2.72489934    -3.03765564    -4.67702453
O       3.81207996     2.83414036     7.07691946    -2.72489934     3.03765564     4.67702453
O       0.44928721     0.50440860     2.11240254     0.30763389    -4.30190738     3.56636618
O       6.99733695     4.15496794     7.07694879    -0.30763389     4.30190738    -3.56636618
O       2.56956622     0.50445212     6.70710768    -2.72498855     3.03723886    -4.67790771
O       4.87705794     4.15492442     2.48224374     2.72498855    -3.03723886     4.67790771
