# total energy = -19073.51707738 eV

CRYSTAL
PRIMVEC
        5.93400000     0.00000000     0.00000000
        0.00000000     9.29699974     0.00000000
        0.00000000     0.00000000     4.64899994
PRIMCOORD
22 1
Ti      4.44868101     6.91219701     2.44200500     0.30436679    -0.26280309    -0.17512999
Ti      4.36066502     2.25802298     2.29712002     0.14088751     0.07485487    -0.32256301
Ti      1.45527803     7.06041802     2.30001902     0.38975650     0.17764735     1.31924355
Ti      1.57143598     2.42755698     2.26026098    -0.51102160    -0.60756630    -0.57054574
Ti      2.83690802     4.64911001     4.57434499     0.93153982     0.22359787    -0.11831501
Ti      3.05619500     9.10814199     0.13601898    -1.03238495     1.26638011    -0.28235505
Ti      5.72132901     4.64661002     4.60859102     0.22162018    -0.38223602     0.07208296
Ti      0.03213402     0.01923797     4.55042899     1.09977847     0.22775097     1.08165167
O       4.55140500     5.53865898     1.11964100     0.23710054    -0.57269622    -1.27112893
O       4.46623398     1.08288599     0.64196799     0.52219767    -0.73871138     0.51329265
O       1.53845501     0.88448998     0.87945602    -0.53821128    -0.15213583    -0.48291249
O       4.50082201     8.15359402     3.94952102     0.51550432     1.59189114     0.53867305
O       4.38474798     3.90277699     3.49534798     0.70393822    -0.97701339     0.82448213
O       1.59980602     8.31475199     3.77274798    -0.59726697     0.54565488     0.86318779
O       1.52925399     3.92327600     3.61473201    -1.19042043    -0.86591367     0.16843354
O       3.03672498     6.08253201     3.29820903    -0.75314453     0.01343376     0.17373105
O       2.92509102     1.26304000     3.14276802     1.00025952     1.33702633    -0.59117577
O       0.03983699     6.20563298     3.43240002     0.88324780    -1.04848572    -0.38981846
O       3.11744202     8.08458598     1.73727600    -0.70177130    -0.33846889    -1.46342078
O       2.92864100     3.31277902     1.29612802     0.51623811    -0.62026061     0.63140661
O       0.14614399     8.00622398     1.54909702    -0.90041840    -0.35184660    -0.50346512
O       0.10171501     2.96929901     1.32913598    -1.24179624     1.45990043    -0.01535412
