# total energy = -4964.19135206 eV

CRYSTAL
PRIMVEC
        4.44492947     0.00000000     0.00000000
       -0.00000673     2.66695768     0.00000000
       -2.22248977    -1.33352749     4.84071991
PRIMCOORD
6 1
Ti     -0.00019053     2.00031306     1.21017966    -0.01602209    -0.02155151    28.17214880
Ti      2.22262335    -0.66688297     3.63053966     0.01602209     0.02155151   -28.17214880
O       0.00004708     0.66673086     0.78851362     0.01442852     0.01721714   -17.61895195
O       2.22238565     0.66669919     4.05220575    -0.01442852    -0.01721714    17.61895195
O      -0.00001831    -0.66673973     3.20887357    -0.00165142    -0.00003342    -0.13496214
O       2.22245099     2.00016972     1.63184575     0.00165142     0.00003342     0.13496214
