# total energy = -19075.93452244 eV

CRYSTAL
PRIMVEC
        7.60600008     0.00000000     0.00000000
        0.00000000     7.60600008     0.00000000
       -1.89786986    -1.89786986     4.85670466
PRIMCOORD
22 1
Ti      3.78181602     6.53962500     1.22434200    -0.62161276    -0.67507372     0.24850313
Ti      3.76794300     2.76261598     1.22027999     0.01040577     1.12780145    -0.42859046
Ti     -0.03451500     6.62615400     1.23252102     0.82129807     0.54112768    -1.57895875
Ti     -0.05274199     2.93427002     1.15698102    -0.23974826    -0.51321681     0.21352377
Ti      5.67963625     2.93658824     3.53652680     0.65190113     0.90415679     0.64389960
Ti      6.07690924    -0.82292476     3.68557884    -1.55669761    -1.21072444     0.51303477
Ti      1.87264123     2.72978323     3.56636182    -0.47876273     0.37206293     0.68185450
Ti      1.94203823    -1.06973779     3.79406383    -1.21563859     0.83399573    -1.74733830
O       3.49150499     4.69058502     0.71666602     0.96647341    -0.28985445    -0.17380870
O       3.76919699     0.87174702     0.96936700     0.29601122     0.61540765    -0.31594447
O       0.10031698     4.77845803     0.71237402    -0.50216774     0.22990633    -0.34506197
O       7.29051498     1.01367400     0.71895598     0.96988578    -0.07028884     0.80427222
O       5.88975422     4.85139024     4.06883483    -0.38626186    -0.05610561    -0.32489243
O       5.50329825     0.95445520     4.00078480     0.94825328     0.88458143    -0.62128160
O       1.83341121     4.73617221     4.20108379     0.40488308    -0.60992940    -1.23393869
O       1.99192525     0.85674622     3.92739982    -0.00601021     0.31304401     0.73785906
O       3.79263822     2.96242923     3.15299183    -0.35763338    -0.12042872     0.50334454
O       0.01307020     3.04090622     3.14787681    -0.19554507    -1.07287084    -0.21806562
O       5.64298601     6.60037402     1.77860802     0.37194441    -0.28316752     0.72922606
O       5.66172201     3.26386600     1.58663802     0.04800020    -1.14066751     0.15446011
O       1.78065102     6.51565698     1.73826000     0.78560086     0.66507521     1.52659333
O       1.90183197     2.81351701     1.55053998    -0.71457874    -0.44483058     0.23130938
