# total energy = -19896.49295712 eV

CRYSTAL
PRIMVEC
        8.66809132     0.00000000     0.00000000
        0.00002729     3.49931645     0.00000000
        0.00000000     0.00000000    13.41604419
PRIMCOORD
24 1
Ti      3.14178249     2.07369164     4.97725673     0.10214920    -0.06748017     2.36434723
Ti      5.52633637     1.42562468     8.43878758    -0.10214920     0.06748017    -2.36434723
Ti      7.47568021     1.42562588     1.73071183     0.09011720     0.06771234    -2.36426265
Ti      1.19243865     2.07369063    11.68533261    -0.09011720    -0.06771234     2.36426265
Ti      3.14176896     0.32403348     1.73076561     0.10214920    -0.06748017    -2.36434723
Ti      5.52634990     3.17528297    11.68527882    -0.10214920     0.06748017     2.36434723
Ti      1.19242513     0.32403222     8.43873380    -0.09011720    -0.06771234    -2.36426265
Ti      7.47569373     3.17528422     4.97731051     0.09011720     0.06771234     2.36426265
O       2.74351536     1.23216878     6.84610464     1.93244854     0.60943601    -1.90524960
O       5.92460356     2.26714754     6.56993967    -1.93244854    -0.60943601     1.90524960
O       1.59060040     1.23218288     0.13812570    -1.93210144     0.60937919    -1.90624384
O       7.07751859     2.26713345    13.27791825     1.93210144    -0.60937919     1.90624384
O       5.92459004     0.51748932     0.13808218    -1.93244854    -0.60943601    -1.90524960
O       2.74352882     2.98182701    13.27796176     1.93244854     0.60943601     1.90524960
O       7.07750506     0.51747522     6.84614822     1.93210144    -0.60937919    -1.90624384
O       1.59061374     2.98184116     6.56989609    -1.93210144     0.60937919     1.90624384
O       0.31494843     2.12848262     3.62400822    -1.57884047     0.46892568     0.33680333
O       8.35317043     1.37083371     9.79203609     1.57884047    -0.46892568    -0.33680333
O       4.64900551     1.37080118     3.08405654    -1.57727904    -0.46887914    -0.33706635
O       4.01911341     2.12851521    10.33198753     1.57727904     0.46887914     0.33706635
O       0.31493491     0.37882440     3.08401369    -1.57884047     0.46892568    -0.33680333
O       8.35318395     3.12049193    10.33203038     1.57884047    -0.46892568     0.33680333
O       4.01909989     0.37885692     9.79207881     1.57727904     0.46887914    -0.33706635
O       4.64901903     3.12045940     3.62396544    -1.57727904    -0.46887914     0.33706635
