# total energy = -4985.58903243 eV

CRYSTAL
PRIMVEC
        2.90648292     0.00000000     0.00000000
        1.54654497     4.28337763     0.00000000
       -0.00001005    -0.00006034     4.62757071
PRIMCOORD
6 1
Ti      2.22650891     2.14165859     2.31378535     0.00000000     0.00000000     0.00000000
Ti      0.00000000     0.00000000     0.00000000     0.00000000     0.00000000     0.00000000
O       1.75463831     0.83475544     0.90184539    -4.28482985     1.99712955     2.30563196
O       2.69837952     3.44856174     3.72572537     4.28482985    -1.99712955    -2.30563196
O       0.47186638     1.30687876     3.21563166     4.28551043    -1.99706475     2.30637012
O       1.07466863     2.97643841     1.41193910    -4.28551043     1.99706475    -2.30637012
