# total energy = -19955.91209580 eV

CRYSTAL
PRIMVEC
        5.51906361     0.00000000     0.00000000
        0.58596058     5.84465309     0.00000000
        0.00000000     0.00000000     9.89030940
PRIMCOORD
24 1
Ti      2.34763487     3.46353604     3.66923434     0.21195437    -1.04692660     0.65617534
Ti      3.75738950     2.38111710     6.22107541    -0.21195437     1.04692660    -0.65617534
Ti      4.99855709     2.38111908     1.27588103    -0.29020515    -0.03446822    -0.09841672
Ti      1.10646729     3.46353434     8.61442888     0.29020515     0.03446822     0.09841672
Ti      2.05465469     0.54120955     1.27592070     0.21195437    -1.04692660    -0.65617534
Ti      4.05036969     5.30344382     8.61438921    -0.21195437     1.04692660     0.65617534
Ti      0.81348703     0.54120740     6.22103579     0.29020515     0.03446822    -0.09841672
Ti      5.29153728     5.30344592     3.66927401    -0.29020515    -0.03446822     0.09841672
O       1.95314523     2.05800173     5.04694931     1.00386626     1.10185644    -0.27113347
O       4.15187914     3.78665147     4.84336043    -1.00386626    -1.10185644     0.27113347
O       1.21907468     2.05802536     0.10182628    -0.60188930     0.35034662     0.36561975
O       4.88594975     3.78662789     9.78848323     0.60188930    -0.35034662    -0.36561975
O       3.85889895     0.86432475     0.10179422    -1.00386626    -1.10185644    -0.27113347
O       2.24612542     4.98032845     9.78851530     1.00386626     1.10185644     0.27113347
O       4.59296957     0.86430117     5.04698144     0.60188930    -0.35034662     0.36561975
O       1.51205475     4.98035203     4.84332836    -0.60188930     0.35034662    -0.36561975
O       0.55693477     3.55504946     2.67161938     0.16792781     0.26229890     0.43749393
O       5.54808954     2.28960374     7.21869036    -0.16792781    -0.26229890    -0.43749393
O       3.18960389     2.28954931     2.27356694     0.50557883     0.50365924    -0.03699330
O       2.91542048     3.55510383     7.61674269    -0.50557883    -0.50365924     0.03699330
O       0.26395458     0.63272274     2.27353532     0.16792781     0.26229890    -0.43749393
O       5.84106973     5.21193041     7.61677425    -0.16792781    -0.26229890     0.43749393
O       2.62244029     0.63277717     7.21872192    -0.50557883    -0.50365924    -0.03699330
O       3.48258408     5.21187603     2.67158782     0.50557883     0.50365924     0.03699330
