# total energy = -19954.30978322 eV

CRYSTAL
PRIMVEC
        5.51366395     0.00000000     0.00000000
        1.16204970     5.75199784     0.00000000
        0.00000000     0.00000000     9.91845083
PRIMCOORD
24 1
Ti      2.68706748     3.40862859     3.67967464     0.45360936    -1.66967810     0.86396657
Ti      3.98864590     2.34336938     6.23877658    -0.45360936     1.66967810    -0.86396657
Ti      5.22859932     2.34337145     1.27951134    -0.88695996    -0.41269769     0.24312669
Ti      1.44711409     3.40862675     8.63893999     0.88695996     0.41269769    -0.24312669
Ti      2.10604276     0.53262989     1.27955111     0.45360936    -1.66967810    -0.86396657
Ti      4.56967064     5.21936826     8.63890022    -0.45360936     1.66967810     0.86396657
Ti      0.86608928     0.53262766     6.23873681     0.88695996     0.41269769     0.24312669
Ti      5.80962412     5.21937048     3.67971441    -0.88695996    -0.41269769    -0.24312669
O       2.15428681     2.02537625     5.06130969     1.12483877     1.41411421    -0.56474482
O       4.52142657     3.72662173     4.85714153    -1.12483877    -1.41411421     0.56474482
O       1.42093686     2.02539941     0.10211602    -0.34577545    -0.05257959     0.65090355
O       5.25477659     3.72659862     9.81633492     0.34577545     0.05257959    -0.65090355
O       3.94040184     0.85062286     0.10208383    -1.12483877    -1.41411421    -0.56474482
O       2.73531154     4.90137512     9.81636711     1.12483877     1.41411421     0.56474482
O       4.67375186     0.85059974     5.06134189     0.34577545     0.05257959     0.65090355
O       2.00196147     4.90139830     4.85710933    -0.34577545    -0.05257959    -0.65090355
O       0.90714860     3.49869108     2.67922111     0.16275038     0.70126633     0.70440154
O       5.76856478     2.25330690     7.23923011    -0.16275038    -0.70126633    -0.70440154
O       3.41238131     2.25325317     2.28003605     0.80752132     0.69210549     0.00928991
O       3.26333207     3.49874481     7.63841500    -0.80752132    -0.69210549    -0.00928991
O       0.32612387     0.62269221     2.28000436     0.16275038     0.70126633    -0.70440154
O       6.34958951     5.12930583     7.63844669    -0.16275038    -0.70126633     0.70440154
O       2.68230733     0.62274588     7.23926175    -0.80752132    -0.69210549     0.00928991
O       3.99340605     5.12925210     2.67918942     0.80752132     0.69210549    -0.00928991
