# total energy = -4985.29013783 eV

CRYSTAL
PRIMVEC
        3.88504117     0.00000000     0.00000000
        0.00000000     2.93091143     0.00000000
        0.00000000    -0.00007749     5.13856863
PRIMCOORD
6 1
Ti      1.94252053     1.46541682     2.56928437     0.00000000     0.00000000     0.00000000
Ti      0.00000000     0.00000000     0.00000000     0.00000000     0.00000000     0.00000000
O       1.94252053     0.57117631     1.00143137     0.00000000    -1.44758175    -0.11536827
O       1.94252053     2.35965732     4.13713737     0.00000000     1.44758175     0.11536827
O       0.00000000     0.89420970     3.57071679     0.00000000     1.44777716    -0.11567397
O       0.00000000     2.03662393     1.56785194     0.00000000    -1.44777716     0.11567397
