# total energy = -4989.78969986 eV

CRYSTAL
PRIMVEC
        3.70745224     0.00000000     0.00000000
        0.73414125     3.63403890     0.00000000
       -2.22083052    -1.81704708     4.75560895
PRIMCOORD
6 1
Ti      0.55047814     2.72566815     1.18890236     0.00135677    -0.00135677     0.00000000
Ti      1.67028483    -0.90867633     3.56670674    -0.00135677     0.00135677    -0.00000000
O       0.18357416     0.90850441     0.77464989    -0.00011004     0.00028076     0.00178100
O       2.03718870     0.90848731     3.98095926     0.00011004    -0.00028076    -0.00178100
O      -0.18354983    -0.90848451     3.15245426     0.00028076    -0.00011004     0.00178100
O       2.40431257     2.72547614     1.60315484    -0.00028076     0.00011004    -0.00178100
