# total energy = -19518.83407747 eV

CRYSTAL
PRIMVEC
        7.60600008     0.00000000     0.00000000
        0.00000000     7.60600008     0.00000000
       -1.89786986    -1.89786986     4.85670466
PRIMCOORD
23 1
Ti      3.76189001     6.71768002     1.27377399     0.56532640     0.01858343     0.03863033
Ti      3.79916800     2.92847399     1.20313501    -0.38274561     0.00078084     0.13645441
Ti      0.02497600     6.61693600     1.25426401    -1.09609665     0.76753269    -0.79158099
Ti     -0.07211998     2.86150000     0.99311499     0.52598851    -1.38561660     1.60509042
Ti      5.65924022     2.72770822     3.62617382    -0.36516389     1.05602728    -0.76564292
Ti      5.66731922    -1.10596479     3.57234279     0.58944593    -0.45729838     1.05776226
Ti      2.09456023     2.93751620     3.70297882    -0.60047879    -0.36073388    -0.47804590
Ti      1.90853522    -0.93812379     3.69191383    -0.75440411     0.28288496     0.39481823
O       4.03094002     4.87603402     0.86533101    -0.52265559    -1.38232482     0.02018934
O       3.74371499     0.99164298     0.83443701    -0.19327555     0.25402714    -0.14040825
O      -0.19328400     4.67518099     0.69371603     0.40075671     0.80182093     1.18940999
O      -0.10579698     0.91545198     0.64340302     0.84746163    -0.27979192     1.37323005
O       5.58895220     4.65175722     4.08760580     0.97624258     0.18473974    -0.71205160
O       5.74383021     0.89477623     3.95540880     0.38423583     0.23415894    -0.23073551
O       1.93570625     4.75619924     4.10808480    -0.52931603     0.78875741     0.22680095
O       1.85587023     1.02505925     4.00761479    -0.21615015     0.05612720     0.88179075
O       3.82871620     2.83441422     3.23257681     0.44454313    -0.19371495    -0.52668451
O       3.76630324    -0.97942777     3.32657679     0.02951062     0.23801225    -0.98375586
O       0.03324223    -1.00239078     3.24548382    -0.35842220    -0.28261294     0.17164125
O       5.74459598     6.78418199     1.72109101    -0.91277796    -0.23136877    -0.97080675
O       5.70699497     2.68992401     1.64818298     1.02472871     0.58412040    -0.45094749
O       1.84639701     6.62153698     1.68022201     1.24623139    -0.01203045    -0.50415521
O       1.89900500     3.13147199     1.73105002    -1.10298464    -0.68208050    -0.54100324
