# total energy = -39034.94696920 eV

CRYSTAL
PRIMVEC
        5.93200024     0.00000000     0.00000000
        0.00000000     9.29399984     0.00000000
        0.00000000     0.00000000     9.29399984
PRIMCOORD
46 1
Ti      4.49425799     7.07564298     6.82963800    -0.02167904    -1.19108455     0.57317007
Ti      4.41382098     6.85756602     2.38590602    -0.02574858     0.20470077     0.78084226
Ti      4.50124598     2.19471999     7.16469499     0.51657210     0.23915099     0.04034911
Ti      4.36252402     2.59892701     2.07605702     0.70097888    -1.12300608     0.13041334
Ti      1.48643201     6.86215002     7.03608100    -0.52793381    -0.34336658     0.19991723
Ti      1.46624898     7.16086602     2.22154298     0.19719572    -1.18485348     0.76364363
Ti      1.49774302     2.44123700     6.76281101    -0.76569923    -0.30043017     1.64272547
Ti      1.41258300     1.97367699     2.61566499     0.45677130     1.12833624    -1.75575918
Ti      2.87302902     4.61976602     4.78186101     0.09634236     0.96371847    -0.71278565
Ti      2.98153999     4.82795901     9.14644300    -0.89976148    -0.23386454    -0.17325334
Ti      2.98583898     9.28804702     4.71182598     1.14055181    -0.49663499    -0.38472202
Ti      2.93633100     9.26185999     9.07061999     0.21530297    -0.25169721     1.88348829
Ti      5.81898502     4.56358502     4.63033401     0.33364575     0.88231346    -0.76175104
Ti      0.02536997     4.69202200     0.03944699     1.01106098     0.16884312    -0.58503854
Ti      0.00218598     9.19021601     4.77180801    -0.88054402    -0.28320275    -0.59442719
Ti      5.92990999     0.03731599     9.26348002    -0.11453395     0.38302972     1.02285335
O       4.56837498     5.55813397     5.52389002    -1.46193366     0.46362869     0.82506860
O       4.41166802     5.72267402     0.72084599     0.24982519    -0.83833241     2.06908498
O       4.51155102     0.98190903     5.56481299     0.07235833    -0.71929157     0.02743497
O       4.42902498     1.00836101     0.80948498     0.44488612    -0.07132449    -0.25132543
O       1.40484500     5.50840602     5.70282802     0.52573963    -0.76896376    -0.61907251
O       1.50496602     5.75555799     0.85530199    -0.08541594    -1.82290870    -0.24507559
O       1.48621902     0.91550998     5.45398898     0.26998650     1.89319883     0.35144602
O       1.61827197     0.87326100     0.86169900    -0.97494931     0.31882694     1.54924810
O       4.51053802     8.29780297     8.34865903    -0.12132603     0.84356460    -0.06467304
O       4.51361598     8.28991299     3.82588902    -0.21354408     1.23232866    -0.16040964
O       4.46999198     3.77631400     8.40410399    -0.12460959    -1.08644190     0.99535282
O       4.31500702     3.71424098     3.79161299     0.69394769     0.27767744    -0.83879649
O       1.43858301     8.28567899     8.50695600     0.19702988    -0.35390760    -1.21012769
O       1.57646501     8.40321402     3.87528899    -0.70156072     0.48423712    -1.83889197
O       1.51022001     3.76960700     8.46544400    -0.01965403    -0.09083351    -0.12122190
O       1.49364697     3.76570199     3.78831500     0.28054474    -1.37090937     0.12746531
O       3.01141401     5.97572198     7.74334502     0.44071604     0.64642108    -0.16721201
O       2.90197698     6.15690401     3.28247600     0.64262151    -0.82473692     0.10396902
O       2.90866498     1.34348399     7.86401098     0.25318305     0.54595468    -1.09780695
O       3.22645201     1.59340498     3.13342302    -1.60703186    -1.20971117     0.45390066
O       5.83661800     5.99956300     7.93269703     0.64221887     0.81102908    -1.03288914
O       0.02697799     6.09957602     3.41600198    -0.76942939    -0.28141300    -1.64961140
O       0.24548199     1.40450299     7.89200499    -1.46325083    -0.12539635    -0.16358187
O       2.89125701     7.86150702     6.04122602     0.54720655     0.46732620     0.33908261
O       2.89268198     7.84423600     1.37529500     1.46195988     0.74045150     0.34951744
O       3.05593300     3.25880199     6.24207800     0.05276188     0.47058507    -1.11479681
O       0.13794598     7.86614902     6.03021797    -0.52226684    -0.17434631     0.81898459
O       5.88406700     7.82060998     1.38814602    -0.47414888     1.06765510     0.41181375
O       5.81700399     3.16616999     6.13397000     0.86253370     0.43879851    -0.53949452
O       0.20856701     3.05979398     1.51360902    -0.53092040     0.47488062     0.62295204
