# total energy = -19072.45401413 eV

CRYSTAL
PRIMVEC
        5.17600016     0.00000000     0.00000000
        0.00000000     5.50899976     0.00000000
        0.00000000     0.00000000     9.26300011
PRIMCOORD
22 1
Ti      1.72424898     3.39060200     3.21741398     0.71113140     0.04557693    -0.53248929
Ti      3.71578798     2.31053297     6.01458401    -0.84151981     0.02805486    -0.54027434
Ti      4.31666801     2.06422102     1.17768900     0.97087051     2.14516112     0.16192042
Ti      0.84170600     3.28538500     8.17864797    -0.56570230    -1.18179772     0.65233899
Ti      1.73631200     0.44345202     1.31365400     0.64870345     0.94171496    -1.25818343
Ti      3.17224600     5.14796901     8.01985601     1.17190926    -2.34668375    -0.45825894
Ti      0.57613400     0.29184501     6.03589700     1.38483164     1.26689741    -2.10714992
Ti      4.30821202     4.99268501     3.47529999     1.19972989    -1.17216688     0.55598430
O       3.31251602     3.38245097     4.39954701     0.70449590     0.25412665     1.90529151
O       1.07920699     2.12600299     0.43423301    -1.32679025    -0.38312048    -1.48083461
O       4.34132603     3.85523301     8.97384300     1.21354752    -0.49278681     0.85076832
O       3.40983198     0.90411399     0.08682402     0.06099302     0.10871785    -0.69691988
O       1.47454902     4.86232997     8.93258400     0.39205481     2.19364135     0.68091887
O       4.63761099     1.05899602     4.64176699    -0.92403836    -1.37422455     0.11524357
O       1.03990601     4.69653297     4.27403198    -1.64498778     0.55370758     1.91213527
O       0.04332797     3.44567199     2.32524500    -0.02368758     0.06311006     1.07978017
O       0.40303499     2.31395400     6.41074499    -0.72783407    -0.15636864     1.63641932
O       2.77371298     1.91605499     2.33690500    -0.23903889    -0.86797827    -0.10790590
O       2.68013698     3.17903402     7.72632298    -0.68176734    -0.32463532    -3.78350389
O       0.03440800     0.58210000     1.98560899    -0.43722423    -0.44640564     1.09689549
O       2.49916101     0.57621100     6.29370602    -0.20482521     0.17072337     1.16634821
O       2.80824699     4.64004500     2.29067898    -0.84085158     0.97473488    -0.84852426
