# total energy = -19923.25446340 eV

CRYSTAL
PRIMVEC
        7.51131088     0.00000000     0.00000000
        0.00002514     3.84911038     0.00000000
        0.00000000     0.00000000    11.34839715
PRIMCOORD
24 1
Ti      2.72250394     2.28097932     4.21017440     0.02713826     0.18490687     1.90262296
Ti      4.78883225     1.56813123     7.13822286    -0.02713826    -0.18490687    -1.90262296
Ti      6.47803081     1.56813260     1.46397889     0.02639238    -0.18356192    -1.90381621
Ti      1.03330544     2.28097812     9.88441854    -0.02639238     0.18356192     1.90381621
Ti      2.72249143     0.35642419     1.46402440     0.02713826     0.18490687    -1.90262296
Ti      4.78884482     3.49268648     9.88437303    -0.02713826    -0.18490687     1.90262296
Ti      1.03329287     0.35642271     7.13817735    -0.02639238     0.18356192    -1.90381621
Ti      6.47804332     3.49268796     4.21021991     0.02639238    -0.18356192     1.90381621
O       2.37738626     1.35533725     5.79100021     2.41933518     0.41698758    -0.71535881
O       5.13394999     2.49377330     5.55739705    -2.41933518    -0.41698758     0.71535881
O       1.37833100     1.35535274     0.11683810    -2.41923337     0.41782756    -0.71781987
O       6.13300531     2.49375781    11.23155882     2.41923337    -0.41782756     0.71781987
O       5.13393742     0.56921811     0.11680129    -2.41933518    -0.41698758    -0.71535881
O       2.37739878     3.27989244    11.23159568     2.41933518     0.41698758     0.71535881
O       6.13299279     0.56920262     5.79103701     2.41923337    -0.41782756    -0.71781987
O       1.37834334     3.27990799     5.55736025    -2.41923337     0.41782756     0.71781987
O       0.27291870     2.34124716     3.06548518    -1.24946944     0.40098683     0.49547465
O       7.23841749     1.50786344     8.28291208     1.24946944    -0.40098683    -0.49547465
O       4.02858354     1.50782751     2.60874952    -1.24787356    -0.39991879    -0.49616962
O       3.48275265     2.34128309     8.73964757     1.24787356     0.39991879     0.49616962
O       0.27290618     0.41669192     2.60871328    -1.24946944     0.40098683    -0.49547465
O       7.23843007     3.43241863     8.73968381     1.24946944    -0.40098683     0.49547465
O       3.48274014     0.41672785     8.28294826     1.24787356     0.39991879    -0.49616962
O       4.02859611     3.43238270     3.06544894    -1.24787356    -0.39991879     0.49616962
