# total energy = -4990.27805027 eV

CRYSTAL
PRIMVEC
        2.90747642     0.00000000     0.00000000
        0.00000000     4.55557966     0.00000000
        0.00000000    -0.00005912     4.55557966
PRIMCOORD
6 1
Ti      1.45373816     2.27776022     2.27778978     0.00000000     0.00000000     0.00000000
Ti      0.00000000     0.00000000     0.00000000     0.00000000     0.00000000     0.00000000
O       1.45373816     0.88780384     0.88781537     0.00000000     0.23577153     0.23577153
O       1.45373816     3.66771659     3.66776419     0.00000000    -0.23577153    -0.23577153
O       0.00000000     1.38993241     3.16560607     0.00000000    -0.23560235     0.23560235
O       0.00000000     3.16558803     1.38997349     0.00000000     0.23560235    -0.23560235
