# total energy = -4985.11944509 eV

CRYSTAL
PRIMVEC
        3.60616085     0.00000000     0.00000000
        0.00000000     3.04247647     0.00000000
        0.00000000    -0.00006873     4.77625790
PRIMCOORD
6 1
Ti      1.80308033     1.52120382     2.38812910     0.00000000     0.00000000     0.00000000
Ti      0.00000000     0.00000000     0.00000000     0.00000000     0.00000000     0.00000000
O       1.80308033     0.59292045     0.93082236    -0.00000000    -2.32147793    -1.82913000
O       1.80308033     2.44948724     3.84543578    -0.00000000     2.32147793     1.82913000
O       0.00000000     0.92825599     3.31895238     0.00000000     2.32106861    -1.82781077
O       0.00000000     2.11415166     1.45730582     0.00000000    -2.32106861     1.82781077
