# total energy = -19958.56730015 eV

CRYSTAL
PRIMVEC
        5.66486091     0.00000000     0.00000000
        0.00002634     4.93292071     0.00000000
        0.00000000     0.00000000     9.31024394
PRIMCOORD
24 1
Ti      2.05325521     2.92324414     3.45403422    -0.12340297     0.69615189    -1.23339695
Ti      3.61163209     2.00967635     5.85621009     0.12340297    -0.69615189     1.23339695
Ti      4.88558752     2.00967795     1.20105074    -0.12019937    -0.69658230     1.23514788
Ti      0.77929978     2.92324271     8.10919367     0.12019937     0.69658230    -1.23514788
Ti      2.05324225     0.45678389     1.20108807    -0.12351096     0.69471156     1.23401119
Ti      3.61164505     4.47613676     8.10915634     0.12351096    -0.69471156    -1.23401119
Ti      0.77928682     0.45678209     5.85617276     0.12040249     0.69501161     1.23498564
Ti      4.88560048     4.47613851     3.45407155    -0.12040249    -0.69501161    -1.23498564
O       1.79297353     1.73696516     4.75094636     0.55759149    -0.46328596     0.67969066
O       3.87191377     3.19595533     4.55929795    -0.55759149     0.46328596    -0.67969066
O       1.03950857     1.73698510     0.09585419    -0.55723231    -0.46344023     0.67913041
O       4.62537878     3.19593545     9.21438985     0.55723231     0.46344023    -0.67913041
O       3.87190081     0.72949492     0.09582397    -0.55734955     0.46376702     0.67987526
O       1.79298649     4.20342557     9.21442007     0.55734955    -0.46376702    -0.67987526
O       4.62536577     0.72947504     4.75097658     0.55766888     0.46333456     0.67930730
O       1.03952143     4.20344550     4.55926772    -0.55766888    -0.46333456    -0.67930730
O       0.20583342     3.00048203     2.51492925     0.37685881    -0.24223503     0.36862511
O       5.45905388     1.93243847     6.79531506    -0.37685881     0.24223503    -0.36862511
O       3.03826954     1.93239262     2.14022252     0.37811583     0.24215610    -0.36844385
O       2.62661776     3.00052787     7.17002163    -0.37811583    -0.24215610     0.36844385
O       0.20582041     0.53402162     2.14019277     0.37744554    -0.24227334    -0.36828341
O       5.45906689     4.39889887     7.17005138    -0.37744554     0.24227334     0.36828341
O       2.62660475     0.53406747     6.79534475    -0.37792068    -0.24269629    -0.36875881
O       3.03828255     4.39885303     2.51489950     0.37792068     0.24269629     0.36875881
