# total energy = -19517.79122466 eV

CRYSTAL
PRIMVEC
        5.93400000     0.00000000     0.00000000
        0.00000000     9.29699974     0.00000000
        0.00000000     0.00000000     4.64899994
PRIMCOORD
23 1
Ti      4.43788198     7.06421698     2.26591899     0.60331909    -0.61554804     0.17412777
Ti      4.48784600     2.27366202     2.35763800    -1.07286055     0.73553041    -0.20693146
Ti      1.32722099     7.02159700     2.12453199    -0.47342563     0.59279402     1.90693470
Ti      1.47456601     2.27803800     2.35050702     0.97685116     0.16822400    -0.38882936
Ti      2.98950501     4.60139299     0.18235400     0.72252705    -0.03281012     1.31947572
Ti      2.98080200     9.10112701     4.60433701    -1.16585739     0.80911978    -1.24647462
Ti      5.93159902     4.59534502     4.60931901    -0.23681643     0.74875617    -0.40123725
Ti      5.90154397     0.11892401     0.04938600     0.96444301    -0.56932010    -0.52660197
O       4.50013498     5.61123501     0.95962198     0.04098546     0.13645415    -0.02259203
O       4.49378199     0.92369498     0.89556503    -0.62179248     0.22429104     0.14131611
O       1.47935501     5.69021302     0.93667898     0.61779338    -1.12240265    -1.07750037
O       1.48508901     0.86386202     0.87069999     0.21805894     0.48540415     0.55703793
O       4.48213798     8.29604399     3.72535302    -0.20319770     0.24874352     0.44906030
O       4.38201801     3.74543598     3.78449900     0.88777628     0.39855739    -0.24987712
O       1.52710098     8.38963502     3.54266002     0.33398771     0.55854949     1.66051134
O       1.72935998     3.83009201     3.86501702    -2.53059920    -1.13577162    -2.08139311
O       3.08464902     1.39202499     3.19096300    -0.67793922    -0.12910594     0.06822142
O       0.07601298     6.00905501     3.30017000    -0.16035282     0.61148723    -0.98014654
O       5.89753202     1.46226301     3.31699402     0.65236599     0.38227099    -0.58538101
O       2.90443903     7.94430998     1.40644401     0.77302816    -1.09297173     0.52106459
O       2.91579401     3.33088397     1.46348101     0.41806641    -0.97088311     0.90029730
O       5.82962498     7.95014601     1.44681198     0.04516633     0.15335942    -0.73038512
O       0.12104300     3.27238899     1.38646699    -0.11152704    -0.58472898     0.79930305
