# total energy = -19960.15389584 eV

CRYSTAL
PRIMVEC
        7.60600008     0.00000000     0.00000000
        0.00000000     7.60600008     0.00000000
       -1.89786986    -1.89786986     4.85670466
PRIMCOORD
24 1
Ti      3.78994799     6.71953299     1.32029798    -0.13148704    -0.98146500    -0.64651519
Ti      3.71914000     2.89621402     1.14855599     1.16907590     2.13126251     2.55679309
Ti     -0.00220402     6.46709301     1.20528702     0.19730473    -1.15743574    -0.90859091
Ti      0.10374499     2.68620199     1.15757201    -1.96309661     1.79136563     0.13957701
Ti      5.72507125     2.81968923     3.49846383     0.25037026    -1.32648069    -0.23956700
Ti      5.67383324    -1.08376480     3.65048581     0.28742733     0.67459653    -0.32845392
Ti      1.94990323     2.96511221     3.72189580    -0.01319465     1.85936516    -0.81984977
Ti      1.84120223    -0.81969979     3.75446883     0.10434209    -1.61633257    -1.38630103
O       3.79373701     4.76882203     0.82525002    -0.15409733     1.45372438     0.04193908
O       3.79345199     1.09578098     0.92657799    -0.40057776    -1.90461068    -0.63106182
O       0.09530800     4.52294299     0.69476602    -0.21461392     2.65751892    -0.39375020
O       0.23385602     0.85185800     0.67271499    -0.38010046    -0.59904669     0.71158289
O       5.72489524     4.60687521     4.00806083    -0.18894710     2.18680427     1.27026864
O       5.82511623     0.90935422     3.77489380    -0.47717096    -1.05197059     0.90259587
O       1.72620524     4.84932523     4.21701679     0.26683587     0.84937633     0.42212362
O       1.82526823     1.13600623     4.06278480    -0.34450455    -2.42324840    -0.51574574
O       3.82291124     3.18467124     3.23192883    -1.55996549    -1.12321794    -0.49532064
O       3.75557121    -0.95958875     3.39100782    -0.42871516     0.31228862    -0.43424869
O      -0.08271575     3.14119923     3.05262183     1.33990880    -1.19992298     0.75964582
O      -0.09003575    -1.02382277     3.10355080     1.55771500     0.26382382     0.96136437
O       5.68044700     6.46320101     1.59832400    -0.52909980     0.49600712    -0.28308473
O       5.72850100     2.87007801     1.48848199    -0.95410897    -0.67132248     0.04238234
O       1.90158199     6.55983799     1.77688100     0.14164881     0.34964548    -0.07678397
O       1.81612002     3.02323397     1.75342898     2.42505152    -0.97072473    -0.64899939
