# total energy = -19960.77408764 eV

CRYSTAL
PRIMVEC
        5.93400000     0.00000000     0.00000000
        0.00000000     9.29699974     0.00000000
        0.00000000     0.00000000     4.64899994
PRIMCOORD
24 1
Ti      4.42645800     6.82803999     2.31043899     0.07688244     1.14532198     1.21354057
Ti      4.46699800     2.40973302     2.34356501     0.19772768    -2.11807711     0.28699873
Ti      1.47677998     6.96899699     2.22390401    -0.00519414     0.33513648     0.73943206
Ti      1.49886900     2.46512602     2.31429701    -0.20938095    -1.67139842     1.19912234
Ti      2.96440899     4.64453401     0.00021998    -0.27262394    -0.71663331    -0.31144813
Ti      2.91976998     9.20121602     4.61076498     1.23467068     0.83732402    -1.01254811
Ti      5.92044502     4.68474899     0.03608999     0.19271994    -0.57310399    -0.57197991
Ti      0.03122701     9.23635000     0.12115698    -1.64440414     1.39651577    -1.25816414
O       4.43071401     5.59970498     0.89859700     0.18177937    -0.11515127    -0.59792440
O       4.48408900     0.99975299     0.98196501     0.16797152    -0.80676542    -0.89054151
O       1.44366401     5.54596898     0.89807401     0.22753937     0.60400532    -0.08542699
O       1.56378900     0.86071399     0.77657698    -0.40746370     0.67125769     1.14510421
O       4.52966201     8.35010601     3.75334999    -0.40521706     0.15470616    -0.08115330
O       4.40689902     3.68693300     3.85174901     0.22901133     0.52807625     0.05598014
O       1.47305002     8.36899203     3.62992400     0.35854330    -0.27428333     0.56346158
O       1.47231700     3.70217098     3.81519901    -0.00130175     0.58393117     0.12370893
O       2.95668999     5.92881301     3.14415801    -0.03204701     0.90188907     0.01664353
O       2.88137499     1.43522099     3.19679501     0.55595139     0.37439261    -0.43866944
O       0.02509099     6.00877100     3.20443501    -0.12352098     0.26272493    -0.30236801
O       0.08243200     1.50241200     3.23400998    -0.50219680     0.28219847    -0.62278672
O       3.02001499     7.85891702     1.38396499    -0.51300392    -0.46601751     0.33242859
O       2.98477300     3.41732000     1.50768102    -0.06056210    -0.38766285    -0.12878249
O       5.90793702     7.86660099     1.37997298     0.50438944    -0.67746125     0.59188976
O       5.88929199     3.38411201     1.46889302     0.24973031    -0.27092573     0.03348169
