# total energy = -19960.26019757 eV

CRYSTAL
PRIMVEC
        5.93400000     0.00000000     0.00000000
        0.00000000     9.29699974     0.00000000
        0.00000000     0.00000000     4.64899994
PRIMCOORD
24 1
Ti      4.42906499     7.03204502     2.26970102     2.15567283     0.54855072    -0.35631698
Ti      4.48408699     2.44862501     2.40543398    -1.21702673    -1.98684127    -2.09110803
Ti      1.51244002     6.81802701     2.28564698    -1.53002832     1.65570158     0.00242481
Ti      1.50459602     2.31314801     2.46443698     1.31782121    -1.22457755    -1.77089810
Ti      2.94762799     4.67588702     4.61620498     0.58535196     0.69779149     1.05796589
Ti      2.95040601     9.25430202     0.02877401    -0.40559399     0.23330404     0.69900942
Ti      0.01560501     4.57320800     4.61924701    -0.66843873     1.39289283     0.66547476
Ti      5.90266001     0.07763999     4.53959498     0.24373399    -1.13903820     2.29887458
O       4.52622998     5.68432798     0.86836198    -0.30193016    -2.31649873    -1.31699203
O       4.51845298     0.79867802     1.06891899    -0.79814605     0.57290602    -0.89306839
O       1.46530900     5.64813099     0.76328601     0.08264968    -1.00280620     0.00181237
O       1.39586100     0.80590102     1.04232397     0.85180499     0.58615980    -0.33917697
O       4.45770099     8.39417599     3.71886499    -0.49242429     0.30657820     0.21321498
O       4.39547499     3.75422398     3.66864998     0.61676468     1.10262931     1.32199874
O       1.45734198     8.35853400     3.83552301     0.70333196     0.11215593    -0.78594308
O       1.53283699     3.78940998     3.69853802    -0.74351369    -0.01500265     0.48371750
O       3.00008998     6.01193702     3.27754402    -0.22019887     0.35720812    -0.85917686
O       2.97093697     1.51207499     3.34739102    -0.26076266    -0.32112216    -0.02295019
O       0.10202701     5.98859898     3.03681102    -0.64853684    -0.99498104     1.64503149
O       5.90892700     1.50125199     3.30193602    -0.26345075     0.49881888    -0.04372651
O       3.03613701     7.84153201     1.38543901    -0.81971890     0.09370209     0.11285373
O       2.81675298     3.20500001     1.40402599     0.97813748     0.36355669    -0.10169874
O       5.90520900     7.82401698     1.38719800     0.47683466    -0.03072392     0.61319882
O       5.87224798     3.24571702     1.40849299     0.35766655     0.50963603    -0.53452046
