# total energy = -19517.78622497 eV

CRYSTAL
PRIMVEC
        5.93400000     0.00000000     0.00000000
        0.00000000     9.29699974     0.00000000
        0.00000000     0.00000000     4.64899994
PRIMCOORD
23 1
Ti      4.40619601     7.02087700     2.19289200     0.00448606     1.02788629     0.33711314
Ti      4.46641300     2.33127799     2.27466502     0.97025010     0.00954677     0.23968013
Ti      1.36653601     6.97701699     2.32491802    -0.59143057     0.33282763     0.00596213
Ti      1.54301900     2.30764398     2.42812198    -1.06245350    -0.01023634    -0.09725690
Ti      2.98784900     4.56582598     0.15582402    -0.41866728    -0.80424677    -0.34414383
Ti      2.97034202     0.12787801     0.00264298    -0.02983509    -0.90701637     0.51205364
Ti      5.92596900     4.62038902     0.08879600     0.40338181    -0.73617627    -1.18908809
Ti      0.02123901     9.27110297     4.50241499    -0.47842694    -0.18265252     0.21770310
O       4.45009402     5.52622998     0.87132400    -0.66676443     0.76936151     0.62518608
O       4.44367002     0.85980201     0.91087598     0.85866984     0.95754062     0.02864390
O       1.49122900     5.46408097     0.94630000     0.42443941     1.48311827     0.17962865
O       1.57374499     0.94967599     0.95421797    -0.64525354    -0.29060161    -0.81243368
O       4.47570699     8.34846699     3.68303498     0.07540328     0.19843833    -0.09188509
O       4.47886898     3.77145600     3.70146400    -0.58553348    -0.20243280     0.40299486
O       1.53610900     8.44459801     3.65889100    -0.34875639    -0.86590441    -0.21027184
O       1.46148602     3.59720401     3.86752299     0.31755321     0.89908297    -0.26720328
O       3.03587401     1.49436200     3.29525997     0.21967205    -0.02137050    -0.45193454
O       5.83674500     6.06818401     3.25258802     1.00207497     0.26830706    -0.50308537
O       0.06541202     1.28869901     3.07902000    -0.91711669     0.30792083     0.89443210
O       2.96992402     7.94251998     1.25325101    -0.02600569    -1.78232820     1.66295492
O       2.90980801     3.27838102     1.47177798     1.09919946    -0.29997920    -0.06229734
O       5.87991301     7.83561702     1.38249202     0.78200929     0.40948741    -0.73050853
O       0.02843402     3.34023602     1.53817502    -0.38689589    -0.56057269    -0.34624442
