# total energy = -19959.87569959 eV

CRYSTAL
PRIMVEC
        7.60600008     0.00000000     0.00000000
        0.00000000     7.60600008     0.00000000
       -1.89786986    -1.89786986     4.85670466
PRIMCOORD
24 1
Ti      3.70970900     6.60531199     1.16503399     0.07728199     0.99357773    -0.05245772
Ti      4.00832298     2.94188102     1.14820599    -0.79790899    -0.85956099    -0.22828294
Ti     -0.17787902     6.65288200     1.26914199     0.03692388    -0.34146988     0.25745802
Ti      0.02695798     2.85154601     1.34480000    -0.27927719    -0.49283541    -1.83418428
Ti      5.82798024     2.70413321     3.73106882    -2.29257049     0.73845633     0.27149111
Ti      5.57722124    -1.01557877     3.73048879     1.37622667    -0.57041076    -0.42097716
Ti      1.93979822     2.98502325     3.53780583     1.63787534    -2.18037162    -0.38540876
Ti      1.92721423    -0.97304679     3.59728381    -1.34610002     1.86178740     0.58994781
O       3.97064800     4.80525101     0.82309298    -0.94375462     1.41774795    -1.23400399
O       3.66851599     1.07554699     0.74698602     0.42260776    -2.26038258    -0.47104993
O      -0.08021200     4.64804499     0.89340201     0.54284852     1.83591206    -1.95347888
O       7.19230201     0.96885200     0.83002902     1.05522818    -0.22152504     0.02929593
O       5.75317723     4.69838023     4.09676882    -0.32581237    -0.21946713     0.70595551
O       5.80042820     0.86726923     3.97220881     0.28216942     0.76072414     0.70913957
O       2.04504723     4.78379922     3.95125884    -0.19872501    -0.33164878     0.95963350
O       1.83951924     1.00007520     4.07445882     0.52064781     0.31838265    -1.43040035
O       3.97361425     2.64040524     2.99959081    -0.73628091     0.35499620     2.22183942
O       3.82147722    -1.07980777     3.03342582    -1.93421643     0.41075728     2.21965064
O       0.05587424     2.81336820     3.20975980    -0.36477771    -0.08482844     0.97376866
O      -0.05982079    -1.07819177     3.20670682     0.30959487     0.20112359     0.26525721
O       5.60608601     6.69359500     1.76743498     0.90233002    -0.05309896    -1.70587179
O       5.76580599     3.19708003     1.47586000     0.72268646    -1.39250048     1.01424812
O       1.80161300     6.53588600     1.65117801     0.78125775     0.66617025    -0.73639739
O       1.88640101     3.12572799     1.64627302     0.55174506    -0.55153526     0.23482845
