# total energy = -19960.81681198 eV

CRYSTAL
PRIMVEC
        5.93400000     0.00000000     0.00000000
        0.00000000     9.29699974     0.00000000
        0.00000000     0.00000000     4.64899994
PRIMCOORD
24 1
Ti      4.46665298     6.86642598     2.21611600    -0.69025841     1.16098875     0.18817345
Ti      4.43949502     2.29754898     2.27963098    -0.61875703     1.19030833     0.41610055
Ti      1.45961500     6.98658599     2.35980398     0.50728913     0.91678297    -0.35518775
Ti      1.45716698     2.27357598     2.37549398     0.34066281     0.12545317    -0.16861892
Ti      2.92942302     4.70616400     4.59225902     0.85258764    -1.04350677    -0.09237540
Ti      2.97107101     0.08515901     0.03796699     0.47650735    -1.26958036    -0.43073553
Ti      0.05720401     4.60740000     4.63309499    -1.06180584    -0.55397472    -0.36097016
Ti      5.93194002     0.05818701     0.01905901    -0.55230247    -1.15904011    -0.62607208
O       4.35988702     5.50465400     0.87471999     1.17861470     0.73866716     0.32766434
O       4.44500100     0.85418897     0.99214300     0.39532346     0.61573161     0.38878514
O       1.47504200     5.61142800     0.81621299    -0.28930398    -0.34309533     0.31673097
O       1.43220098     0.91114998     1.01208901     0.63040388     0.22914888     0.18840537
O       4.44577403     8.37790401     3.80987300     0.04717796     0.21931287    -0.20337382
O       4.44541498     3.69795598     3.72680100     0.35559296     0.73572658     0.46296920
O       1.56446698     8.54199198     3.78469300    -0.88678564    -1.30669373    -0.92796984
O       1.46094599     3.75378598     3.67467302    -0.10436343     0.13278879     0.92735226
O       2.88781498     5.99002802     3.10186299     0.77443816    -0.00351778     0.74395103
O       3.03470601     1.42417198     3.31847900    -0.35856567     0.63614695    -0.58832519
O       5.92971600     6.05883101     3.28194302    -0.14744922     0.38675525    -0.76674901
O       5.88410901     1.45023502     3.33692199     0.74736932     0.21004661    -0.50806663
O       2.96652602     7.81085899     1.42181503     0.13181999     0.32322147     0.31060069
O       3.04170501     3.32476002     1.44224201    -0.59497432    -1.20983484     0.16434549
O       0.05467301     7.88114400     1.34783499    -0.57002432    -0.99910715     1.17456675
O       0.10103100     3.21480598     1.47030200    -0.56319676     0.26727141    -0.58120117
