# total energy = -39040.39573902 eV

CRYSTAL
PRIMVEC
        7.60629642     0.00000000     0.00000000
       -0.00001693     7.60629642     0.00000000
       -3.80320786    -3.80321633     9.70732590
PRIMCOORD
46 1
Ti      1.92064792     4.73674343     6.07825709     0.00113848     0.00477814    -0.01732487
Ti      3.80307738     6.64779611     1.20813325     0.00000643    -0.00493421     0.01372558
Ti      1.81600407     0.95292064     6.01353146     0.00440970    -0.00522988     0.00884897
Ti      3.80308090     2.87707688     1.18726237    -0.00011904    -0.00387774     0.02449491
Ti     -1.92098809     4.73665671     6.07830028    -0.00114851     0.00481259    -0.01737758
Ti     -0.00004945     6.67738669     1.35603368     0.00000257     0.01243720     0.01528701
Ti     -1.81611599     0.95283710     6.01354875    -0.00442436    -0.00524325     0.00887442
Ti     -0.00005819     2.79922256     1.16427037    -0.00008819     0.00172290    -0.00570888
Ti      3.80312250     0.94625066     8.64513610     0.00003445     0.02916146     0.00150872
Ti      5.71000003     2.86199226     3.60732165     0.00803624    -0.01371890     0.01291723
Ti      3.80314484    -2.81523092     8.50137565     0.00002288     0.00115725    -0.00479331
Ti      5.67864985    -0.95897417     3.66085314    -0.00129429     0.00304547    -0.00023783
Ti      0.00000319     0.93864260     8.42698016    -0.00007173     0.00473520     0.00461899
Ti      1.89647687     2.86203388     3.60730285    -0.00793777    -0.01363122     0.01291594
Ti      0.00002879    -2.89991760     8.49434362     0.00000386     0.00876284     0.00461847
Ti      1.92772462    -0.95889970     3.66082864     0.00123310     0.00299148    -0.00025531
O       2.00272966     2.82944609     5.64598406     0.00629123    -0.00108963     0.00954805
O       3.80316144     4.75363970     0.75147450    -0.00006788    -0.00137503     0.00861268
O       2.05229057    -0.92716983     5.70062228     0.00626655    -0.00144573     0.00672395
O       3.80316145     0.95397369     0.75815134     0.00001414    -0.00634728     0.01649929
O      -2.00298513     2.82940347     5.64598234    -0.00624238    -0.00110326     0.00958225
O       0.00003100     4.82890728     0.82322232    -0.00002905    -0.00291152    -0.00225846
O      -2.05250942    -0.92719162     5.70062846    -0.00621127    -0.00149818     0.00673732
O       0.00007037     0.87304791     0.78003794    -0.00000720     0.00965527    -0.00548622
O       5.74153224     4.74967010     4.09426565     0.00724614     0.00441819    -0.01837182
O       3.80305023    -0.94435380     8.91782727     0.00000077     0.00809101     0.00345711
O       5.65227471     0.95451968     4.04749426     0.00589220    -0.00703197    -0.00320617
O      -0.00010852     2.83780426     8.88980916    -0.00000129    -0.00797197     0.00672961
O       1.86469590     4.74970447     4.09424489    -0.00718726     0.00443361    -0.01842967
O      -0.00009659    -0.92303820     8.83481006    -0.00001414     0.00357975    -0.00491827
O       1.95406207     0.95454787     4.04748712    -0.00580272    -0.00702246    -0.00321079
O       2.04042790     1.12471498     8.01426282     0.00058724    -0.00673449    -0.01386879
O       3.80316204     2.90036823     3.16259420    -0.00003342     0.00393225     0.00555127
O       1.92024048    -2.96122194     8.09790633    -0.00198335     0.00103076     0.00094977
O       3.80314391    -0.99840575     3.22308476    -0.00001054    -0.01175946    -0.00229265
O      -2.04059159     1.12474399     8.01420907    -0.00042500    -0.00673861    -0.01389348
O       0.00001316     2.81833832     3.22678075    -0.00000489    -0.00176275     0.01149875
O      -1.92037621    -2.96120713     8.09786836     0.00192756     0.00101019     0.00106187
O      -0.00001596    -0.92310507     3.32707381    -0.00003240     0.00152698    -0.01029907
O       3.80302981     4.70889247     6.49977495     0.00001106    -0.00753462     0.00113848
O       5.69071720     6.65754625     1.67212373     0.00353038     0.00551708    -0.00845688
O       5.71761648     2.84943696     1.59809431     0.00190647     0.00367282     0.00052759
O      -0.00008950     4.77886066     6.48187343     0.00006891    -0.00295343    -0.00762230
O       1.91554590     6.65755807     1.67210816    -0.00356381     0.00552016    -0.00849750
O      -0.00006420     0.89546974     6.44786689     0.00001620    -0.00772257    -0.03043390
O       1.88871121     2.84948477     1.59809597    -0.00194581     0.00364583     0.00051551
