# total energy = -19518.35066593 eV

CRYSTAL
PRIMVEC
        5.93400000     0.00000000     0.00000000
        0.00000000     9.29699974     0.00000000
        0.00000000     0.00000000     4.64899994
PRIMCOORD
23 1
Ti      4.49170201     6.98161898     2.26617702     1.62481310     0.28597388    -0.23672567
Ti      4.44395598     2.28365500     2.37666002    -0.02215186    -0.45648951    -0.12425221
Ti      1.52260302     7.05361598     2.25266300    -1.47133618     0.39556128    -0.13012949
Ti      1.41855201     2.33139700     2.30250498     0.12570719    -0.48152563    -0.24942744
Ti      2.93166800     4.46124600     0.13525098     0.47749800     0.15516665     0.71233956
Ti      2.96378297     0.00702298     4.53925901    -0.25481853    -0.33786931     0.28205809
Ti      0.00568098     4.64466900     4.64065000    -0.30226337     0.72647421    -0.18189353
Ti      5.92790499     0.10285200     4.64409098     0.01449820    -0.61454119     0.64404101
O       4.50328099     5.56098100     0.88374601    -0.94732768     0.47243292     0.41475329
O       4.46995298     0.96118999     0.97933299    -0.25315168    -0.16398014    -0.42565374
O       1.51446602     5.49699098     0.96347000     0.18232239     0.53886691    -0.18489118
O       1.51269598     0.87352098     0.87825299    -0.01620644     0.95163608     0.91147029
O       4.50697502     8.46954301     3.78201499    -0.49064971    -1.02497940    -1.00237348
O       4.39652398     3.73960101     3.82614398     0.24530056    -0.17384803    -0.70216133
O       1.41819000     8.43553601     3.67172598     0.84146453    -0.54740066     0.05091943
O       1.49090002     3.68698402     3.79874101     0.22360892     0.20836536    -0.25018026
O       2.89944100     1.39142898     3.26539300     0.34992367     0.29194013    -0.26709375
O       0.06717900     6.07219300     3.15595999    -0.33250804    -0.40442131     0.72159888
O       0.03108800     1.43879500     3.23466500    -0.25631260     0.12329370     0.20057106
O       3.01757897     7.90052998     1.40433900    -0.15312750    -0.58077437     0.29495115
O       2.97239401     3.19477800     1.52543402    -0.20201525     0.74505532    -0.67546762
O       5.92849698     7.88502001     1.36712302     0.03953458     0.08997810     0.13250262
O       5.85314098     3.27875700     1.46200498     0.57719770    -0.19891450     0.06504533
