# total energy = -19074.58555299 eV

CRYSTAL
PRIMVEC
        5.17600016     0.00000000     0.00000000
        0.00000000     5.50899976     0.00000000
        0.00000000     0.00000000     9.26300011
PRIMCOORD
22 1
Ti      1.93852401     3.40188702     3.33685701     0.05570811     1.38497640    -1.57494371
Ti      3.49328302     2.23332400     5.97716801    -0.04915591     0.07050893     0.06483965
Ti      4.47738401     2.26962302     1.32039403     0.21709400     0.21266142    -1.54568506
Ti      0.69322998     3.17305501     8.06974600    -0.00392968     1.76547101     0.91427614
Ti      1.90497201     0.54471998     1.24638203    -0.68065225    -0.14125157    -1.54182840
Ti      3.17315502     5.05784102     7.95198400     0.21103417    -0.31027493     1.53656998
Ti      0.56473002     0.10248999     6.01554601     0.59452129     2.51296888    -0.86699096
Ti      4.48203701     4.95798802     3.45986701    -0.14804006     0.54339540    -0.06342040
O       3.47111902     3.42561797     4.40345397     0.40863689    -0.72961790     1.41307034
O       0.90379701     2.03799500     0.18976402    -0.16611107    -1.03999130    -0.26730073
O       4.16157700     3.66456500     8.92299399     1.83900896    -0.88947090     0.31280953
O       3.36936098     0.75841001     0.16461000     2.01817789     1.34826180    -0.59450046
O       1.68069499     4.70393600     9.07340399    -1.94429207    -0.11327822     0.06140079
O       4.13208500     0.68315402     4.85978098     0.27489474    -0.36558838     0.15742922
O       1.09436602     4.89026302     4.28848799    -0.47538584    -0.64088678     1.67210085
O       0.20425702     3.50589702     2.41278198    -0.36052408    -0.24461690     0.02960832
O       0.11712000     2.20796699     6.53335901    -0.60597170    -1.02503313    -0.17522203
O       2.75291902     2.20096301     2.01435998    -0.78594848    -0.28861389     1.35973510
O       2.45580499     3.54186901     7.07997699    -0.99955529    -0.82216376    -1.62287809
O       0.11376602     0.83683799     2.26921598     0.05785267    -0.58837712    -0.07565448
O       2.30785301     0.85510498     6.79364199    -0.14532060    -0.36434654    -0.78456779
O       2.76698899     4.78193001     2.27106201     0.68795778    -0.27473199     1.59115195
