# total energy = -19934.13344922 eV

CRYSTAL
PRIMVEC
        5.91524488     0.00000000     0.00000000
        2.69653976     5.68888105     0.00000000
        0.00000000     0.00000000    10.87953326
PRIMCOORD
24 1
Ti      3.74195867     3.37122561     4.03622922     0.84970440    -3.06127766     0.79801492
Ti      4.86982577     2.31765536     6.84330410    -0.84970440     3.06127766    -0.79801492
Ti      6.20009020     2.31765729     1.40349399    -2.18547886    -0.89638537     0.70167077
Ti      2.41169436     3.37122391     9.47603951     2.18547886     0.89638537    -0.70167077
Ti      2.39368893     0.52678518     1.40353759     0.84970440    -3.06127766    -0.79801492
Ti      6.21809555     5.16209597     9.47599590    -0.84970440     3.06127766     0.79801492
Ti      1.06342447     0.52678308     6.84326050     2.18547886     0.89638537     0.70167077
Ti      7.54836007     5.16209806     4.03627288    -2.18547886    -0.89638537    -0.70167077
O       2.82170978     2.00315170     5.55174255     1.61896795     2.07628613    -1.05178856
O       5.79007466     3.68572927     5.32779083    -1.61896795    -2.07628613     1.05178856
O       2.03495302     2.00317468     0.11201091     0.39759143    -1.07591323     1.43173038
O       6.57683151     3.68570640    10.76752217    -0.39759143     1.07591323    -1.43173038
O       4.44180490     0.84128872     0.11197557    -1.61896795    -2.07628613    -1.05178856
O       4.16997956     4.84759231    10.76755746     1.61896795     2.07628613     1.05178856
O       5.22856173     0.84126579     5.55177783    -0.39759143     1.07591323     1.43173038
O       3.38322267     4.84761526     5.32775548     0.39759143    -1.07591323    -1.43173038
O       1.85510282     3.46029998     2.93883336     0.64304060     2.42416012     2.27765526
O       6.75668156     2.22858101     7.94070002    -0.64304060    -2.42416012    -2.27765526
O       4.22887489     2.22852807     2.50096790     1.08587780     1.59380507     0.99493116
O       4.38290955     3.46035291     8.37856524    -1.08587780    -1.59380507    -0.99493116
O       0.50683305     0.61585937     2.50093315     0.64304060     2.42416012    -2.27765526
O       8.10495134     5.07302162     8.37859999    -0.64304060    -2.42416012     2.27765526
O       3.03463977     0.61591230     7.94073465    -1.08587780    -1.59380507     0.99493116
O       5.57714467     5.07296868     2.93879861     1.08587780     1.59380507    -0.99493116
