# total energy = -4986.74496777 eV

CRYSTAL
PRIMVEC
        4.57043325     0.00000000     0.00000000
       -0.00000784     3.37814651     0.00000000
       -2.28524460    -1.68911744     5.18882674
PRIMCOORD
6 1
Ti     -0.00019738     2.53373428     1.29720638    -0.00381552    -0.00440610     6.35021964
Ti      2.28537797    -0.84470521     3.89161958     0.00381552     0.00440610    -6.35021964
O       0.00004767     0.84452863     0.84521733     0.00132540     0.00336789    -1.85140245
O       2.28513276     0.84450038     4.34360863    -0.00132540    -0.00336789     1.85140245
O      -0.00002046    -0.84452538     3.43963053    -0.00238881    -0.00027228    -1.67729191
O       2.28520083     2.53355428     1.74919549     0.00238881     0.00027228     1.67729191
