# total energy = -4980.79763497 eV

CRYSTAL
PRIMVEC
        4.36640636     0.00000000     0.00000000
        0.00000000     2.59505349     0.00000000
        0.00000000    -0.00010359     5.91633737
PRIMCOORD
6 1
Ti      2.18320318     1.29747479     2.95816842     0.00000000     0.00000000     0.00000000
Ti      0.00000000     0.00000000     0.00000000     0.00000000     0.00000000     0.00000000
O       2.18320318     0.50571746     1.15300692     0.00000000    -0.31827364     1.95590986
O       2.18320318     2.08923212     4.76332991     0.00000000     0.31827364    -1.95590986
O       0.00000000     0.79171636     4.11117664     0.00000000     0.31864310     1.95995807
O       0.00000000     1.80323322     1.80516019     0.00000000    -0.31864310    -1.95995807
