# total energy = -19958.50923430 eV

CRYSTAL
PRIMVEC
        7.60600008     0.00000000     0.00000000
        0.00000000     7.60600008     0.00000000
       -1.89786986    -1.89786986     4.85670466
PRIMCOORD
24 1
Ti      3.82526401     6.78240602     1.29592000    -1.18469099    -0.46664743    -0.07586377
Ti      3.71539602     2.97688101     1.11365400     2.31565772     0.60207082     1.65279931
Ti     -0.01536302     6.42825399     1.12314500     0.84410994    -0.09829125     0.51662918
Ti      0.21509298     2.73750498     1.09247400    -3.48550727    -0.43395944    -0.86175208
Ti      5.76455623     2.87594124     3.55395679    -0.19574227    -2.35669794    -1.60364057
Ti      5.69669422    -1.12928478     3.59949980    -2.08354461     1.51773433     0.69323138
Ti      1.92969025     2.97887622     3.72733780     0.63033677     2.42435063     0.20125549
Ti      1.66871320    -0.82724978     3.70243980     2.16023859    -2.51943881    -0.60471160
O       3.64625398     4.86250201     0.79447598     0.56387219    -1.12999100     0.45011831
O       3.66806101     1.04673297     0.85244999    -0.34414614     0.94873459     0.34512805
O      -0.10706102     4.60633201     0.67619100     0.80121852     0.46186132     0.44611253
O       0.35285698     0.84451101     0.60772001    -0.78354655    -0.30276834     2.34008013
O       5.65607225     4.60072120     4.08307282     0.07275093     1.98513920     0.60433159
O       5.93173422     0.80253720     3.93163583    -0.17755814     1.05471267     0.42310398
O       1.91232820     4.92882120     4.25070379    -0.33003464    -0.33709772    -0.42858943
O       1.86511221     1.13551622     4.10048682    -0.56488957    -1.99143712    -0.68672417
O       3.78388124     3.25265925     3.54901280    -1.08281021    -1.81374657    -2.17770025
O       3.72112722    -0.97518477     3.52598184     0.28386404     0.67578901    -1.70818064
O      -0.05248179     3.15064022     3.21721284     1.37168585    -0.87005212    -0.26712486
O      -0.10672875     6.24486624     3.26850382     2.61751923     1.10113833    -1.43996100
O       5.66775902     6.44679901     1.62226001     0.37616822     0.69106985    -0.12997857
O       5.77860901     2.82610100     1.50748300    -1.77645451    -0.40258605     0.85944940
O       1.95644698     6.37843899     1.60472202    -1.95930861     1.34662375     1.53038750
O       1.87803000     2.93633598     1.73016502     1.93081126    -0.08650994    -0.07839965
