# total energy = -19071.41035600 eV

CRYSTAL
PRIMVEC
        5.93400000     0.00000000     0.00000000
        0.00000000     9.29699974     0.00000000
        0.00000000     0.00000000     4.64899994
PRIMCOORD
22 1
Ti      4.37181902     6.81988902     2.44401201     0.27187421     0.08809297     0.66419461
Ti      4.35251500     2.42974602     2.25514399     0.98715151    -1.28238497    -0.63237746
Ti      1.43138202     7.26190300     2.42805202    -0.34681058    -0.12464353     2.31093538
Ti      1.57310400     2.29577099     2.00603899    -1.03623749     1.56299707     1.50779213
Ti      3.04551599     4.47500202     4.41935702    -1.56025988     1.12012131     0.40844226
Ti      2.92280799     0.03787798     0.11088602     5.46212249     0.13884811    -0.63901887
Ti      5.74817602     4.56785998     4.50131499     1.09061017    -0.24319380     0.40697827
Ti      0.12600102     9.22358598     0.29663798    -4.81298066    -0.23100471    -0.09416515
O       4.52005199     5.51639401     0.85239099    -0.58116132     0.21481549     1.32064506
O       4.39597998     0.79909601     1.07147402     1.38954602     1.23314499    -0.00596316
O       1.62318401     0.49108199     1.31119401    -0.56730127     1.89218479     0.85340756
O       4.55493599     8.31179998     4.15912300    -0.26244571     0.01021371    -1.68298408
O       4.37074299     4.11654100     3.25089698     0.83345708    -1.54328236    -0.97026347
O       1.53727399     8.64138602     3.82925501    -1.37187019    -1.32924669    -1.81747159
O       1.74917799     3.82575101     3.21287898    -0.71265967    -0.13583297     1.24627921
O       2.91679098     6.31113902     3.55044501    -0.51583136    -0.69470308    -0.61290263
O       3.04872502     1.54627497     3.18164800    -0.30299408    -0.67485827     1.58989082
O       0.08899899     6.15851700     3.44952498     0.63449322     0.33934281    -1.21972948
O       2.91055499     7.70665701     1.49154302     0.89346151    -0.06658080    -0.66960833
O       3.01200700     2.76256100     0.97040799    -0.44095284     2.68930188    -1.43296477
O       5.83943698     8.16651500     1.81363802    -0.22550229    -2.15557975     0.13238409
O       5.90109200     3.28004200     1.28857402     1.17429113    -0.80775170    -0.66350067
