# total energy = -19906.83511856 eV

CRYSTAL
PRIMVEC
        6.49815732     0.00000000     0.00000000
        0.00002175     3.32992805     0.00000000
        0.00000000     0.00000000     9.81768311
PRIMCOORD
24 1
Ti      2.35528248     1.97331234     3.64229041    -1.10322015     1.76760168    -2.55997201
Ti      4.14289674     1.35661586     6.17539280     1.10322015    -1.76760168     2.55997201
Ti      5.60424991     1.35661704     1.26651197    -1.10165744    -1.76682264     2.56212273
Ti      0.89392936     1.97331131     8.55117139     1.10165744     1.76682264    -2.56212273
Ti      2.35527166     0.30834837     1.26655134    -1.10322015     1.76760168     2.55997201
Ti      4.14290761     3.02157993     8.55113202     1.10322015    -1.76760168    -2.55997201
Ti      0.89391848     0.30834709     6.17535343     1.10165744     1.76682264     2.56212273
Ti      5.60426074     3.02158121     3.64232978    -1.10165744    -1.76682264    -2.56212273
O       2.05671556     1.17252432     5.00988855     5.97066143    -2.43180375     4.92449665
O       4.44146371     2.15740387     4.80779466    -5.97066143     2.43180375    -4.92449665
O       1.19241658     1.17253772     0.10107854    -5.96890433    -2.43330142     4.92669700
O       5.30576273     2.15739047     9.71660437     5.96890433     2.43330142    -4.92669700
O       4.44145283     0.49243985     0.10104670    -5.97066143     2.43180375     4.92449665
O       2.05672638     2.83748835     9.71663626     5.97066143    -2.43180375    -4.92449665
O       5.30575191     0.49242645     5.00992039     5.96890433     2.43330142     4.92669700
O       1.19242726     2.83750179     4.80776282    -5.96890433    -2.43330142    -4.92669700
O       0.23610641     2.02545103     2.65200113     3.42489837    -1.06169168     1.31261524
O       6.26207281     1.30447721     7.16568208    -3.42489837     1.06169168    -1.31261524
O       3.48519320     1.30444613     2.25687168     3.42557637     1.06216399    -1.31368328
O       3.01298602     2.02548212     7.56081139    -3.42557637    -1.06216399     1.31368328
O       0.23609558     0.36048696     2.25684033     3.42489837    -1.06169168    -1.31261524
O       6.26208369     2.96944123     7.56084274    -3.42489837     1.06169168     1.31261524
O       3.01297519     0.36051804     7.16571338    -3.42557637    -1.06216399    -1.31368328
O       3.48520408     2.96941015     2.65196978     3.42557637     1.06216399     1.31368328
