# total energy = -4986.96342889 eV

CRYSTAL
PRIMVEC
        3.72280480     0.00000000     0.00000000
        1.59453165     3.36403692     0.00000000
       -2.65870347    -1.68204076     4.88242077
PRIMCOORD
6 1
Ti      1.19580469     2.52315717     1.22060514     0.00087366    -0.00087366     0.00000000
Ti      1.46282854    -0.84116080     3.66181533    -0.00087366     0.00087366     0.00000000
O       0.39867158     0.84100481     0.79530639     0.00007173     0.00010927    -2.24218405
O       2.25996152     0.84099143     4.08711413    -0.00007173    -0.00010927     2.24218405
O      -0.39863803    -0.84098363     3.23651662     0.00010927     0.00007173    -2.24218405
O       3.05727107     2.52297983     1.64590390    -0.00010927    -0.00007173     2.24218405
