# total energy = -19517.69924007 eV

CRYSTAL
PRIMVEC
        7.60600008     0.00000000     0.00000000
        0.00000000     7.60600008     0.00000000
       -1.89786986    -1.89786986     4.85670466
PRIMCOORD
23 1
Ti      3.71252301     6.71097201     1.26345598     2.08670501    -0.47266638    -1.73965275
Ti      3.72555199     2.85610900     1.10108498     0.84615756     0.78286572     2.45510284
Ti      0.02232398     6.63786602     1.21033902    -1.65685960    -0.64869265     1.32273742
Ti      0.12550899     2.76290200     1.04225799    -1.05582519     0.74200779     0.95932754
Ti      5.63245623     2.88522021     3.65272381    -0.77263787    -1.40968496    -0.61105169
Ti      5.66724720    -1.07107777     3.65628279     0.90880097     0.42778107    -1.27649586
Ti      1.82358322     2.92426920     3.61812583     1.76334368     2.23436455     3.13166318
Ti      1.94392025    -0.83645180     3.63235879    -1.04578477    -1.70391441     0.05760584
O       3.80993099     4.84069398     0.77931002    -0.68991877    -0.69174528     0.19485395
O       4.07880199     1.07559499     0.93078299    -0.51489882    -0.64566518    -1.31004620
O       0.15102602     4.63966198     0.93253298     0.38080674     1.04200962    -0.42706168
O       7.28795598     0.90874302     0.75312601     0.90229274    -0.54391090    -0.35002240
O       5.79229422     4.65034421     4.15832579     0.44315448     1.47385535    -0.56455764
O       5.73722920     0.98762425     4.02310179     0.36910205    -1.45424734    -0.34004086
O       1.85719725     4.88341520     4.02930280    -0.38732321    -0.58365992     0.23029919
O       1.74151423     1.06281224     4.04466683    -0.19941561    -1.10128385     0.36546651
O       3.86779520     2.93674921     3.27775881    -0.93389212     0.20167252    -0.36893930
O       3.76755723    -1.20402477     3.13198784    -0.27736428     0.96366293     1.06494721
O       0.02281124    -0.99948279     3.21153683     0.28278520     0.35438351     0.45548524
O       5.70501601     6.51974302     1.71147099     0.18326907     0.17865214    -0.29634186
O       5.99265703     2.82280502     1.83794398    -0.25565491     0.52402521    -0.10983551
O       1.89205802     6.86626299     1.48140102    -0.13470632     0.21497721     1.17558439
O       1.89715600     2.50362700     1.89959302    -0.24213604     0.11521298    -4.01902731
