# total energy = -4940.00577640 eV

CRYSTAL
PRIMVEC
        4.47440368     0.00000000     0.00000000
       -0.00000634     2.40929458     0.00000000
       -2.23722668    -1.20470150     4.82699444
PRIMCOORD
6 1
Ti     -0.00019151     1.80705396     1.20674842    -0.03117387    -0.02886296    46.81572302
Ti      2.23736184    -0.60246073     3.62024564     0.03117387     0.02886296   -46.81572302
O       0.00004750     0.60231421     0.78627790     0.03120292     0.02873903   -34.46086352
O       2.23712273     0.60227892     4.04071625    -0.03120292    -0.02873903    34.46086352
O      -0.00001827    -0.60233054     3.19977511    -0.00103487    -0.00010336     0.55383614
O       2.23718841     1.80692367     1.62721904     0.00103487     0.00010336    -0.55383614
