# total energy = -19948.04118628 eV

CRYSTAL
PRIMVEC
        6.21090311     0.00000000     0.00000000
        0.00002444     4.40685267     0.00000000
        0.00000000     0.00000000     9.64943656
PRIMCOORD
24 1
Ti      2.25116823     2.61149679     3.57987214     0.08480067     1.20639136    -1.59435297
Ti      3.95975943     1.79535587     6.06956452    -0.08480067    -1.20639136     1.59435297
Ti      5.35651272     1.79535741     1.24480762     0.08602426    -1.20662045     1.59566141
Ti      0.85441494     2.61149547     8.40462910    -0.08602426     1.20662045    -1.59566141
Ti      2.25115601     0.40807057     1.24484630     0.08480067     1.20639136     1.59435297
Ti      3.95977165     3.99878226     8.40459041    -0.08480067    -1.20639136    -1.59435297
Ti      0.85440272     0.40806892     6.06952579    -0.08602426     1.20662045     1.59566141
Ti      5.35652494     3.99878390     3.57991082     0.08602426    -1.20662045    -1.59566141
O       1.96579871     1.55172776     4.92403363     1.35186520    -0.77775025     1.25579024
O       4.24512895     2.85512496     4.72540303    -1.35186520     0.77775025    -1.25579024
O       1.13970650     1.55174552     0.09934636    -1.35135124    -0.77889054     1.25621627
O       5.07122126     2.85510720     9.55008998     1.35135124     0.77889054    -1.25621627
O       4.24511679     0.65169857     0.09931503    -1.35186520     0.77775025     1.25579024
O       1.96581088     3.75515409     9.55012131     1.35186520    -0.77775025    -1.25579024
O       5.07120904     0.65168087     4.92406490     1.35135124     0.77889054     1.25621627
O       1.13971857     3.75517191     4.72537171    -1.35135124    -0.77889054    -1.25621627
O       0.22567147     2.68049760     2.60655356     0.13025856    -0.06652758     1.09400069
O       5.98525620     1.72635512     7.04288310    -0.13025856     0.06652758    -1.09400069
O       3.33112997     1.72631403     2.21819546     0.13159965     0.06740792    -1.09385593
O       2.87979769     2.68053870     7.43124104    -0.13159965    -0.06740792     1.09385593
O       0.22565924     0.47707122     2.21816461     0.13025856    -0.06652758    -1.09400069
O       5.98526842     3.92978145     7.43127184    -0.13025856     0.06652758     1.09400069
O       2.87978552     0.47711231     7.04291384    -0.13159965    -0.06740792    -1.09385593
O       3.33114214     3.92974041     2.60652277     0.13159965     0.06740792     1.09385593
