# total energy = -19925.95306667 eV

CRYSTAL
PRIMVEC
        6.17556164     0.00000000     0.00000000
        2.52797706     6.06706324     0.00000000
        0.00000000     0.00000000    11.28984077
PRIMCOORD
24 1
Ti      3.73642098     3.59533617     4.18845040     0.18508042    -2.52343713     0.71775585
Ti      4.96711781     2.47172724     7.10139049    -0.18508042     2.52343713    -0.71775585
Ti      6.35592413     2.47172930     1.45642491    -0.88913820    -1.05353048     0.35498515
Ti      2.34761472     3.59533435     9.83341604     0.88913820     1.05353048    -0.35498515
Ti      2.47243257     0.56180453     1.45647017     0.18508042    -2.52343713    -0.71775585
Ti      6.23110626     5.50525906     9.83337079    -0.18508042     2.52343713     0.71775585
Ti      1.08362617     0.56180229     7.10134517     0.88913820     1.05353048     0.35498515
Ti      7.61991267     5.50526129     4.18849566    -0.88913820    -1.05353048    -0.35498515
O       2.84474793     2.13631617     5.76111935     1.80151532     2.14033233    -0.88854479
O       5.85879080     3.93074725     5.52872155    -1.80151532    -2.14033233     0.88854479
O       2.02336661     2.13634068     0.11623524    -0.10386695    -0.79955244     1.52111790
O       6.68017227     3.93072283    11.17360528     0.10386695     0.79955244    -1.52111790
O       4.59480237     0.89721549     0.11619859    -1.80151532    -2.14033233    -0.88854479
O       4.10873642     5.16984792    11.17364193     1.80151532     2.14033233     0.88854479
O       5.41618377     0.89719102     5.76115594     0.10386695     0.79955244     1.52111790
O       3.28735492     5.16987247     5.52868489    -0.10386695    -0.79955244    -1.52111790
O       1.76203141     3.69033196     3.04966767     0.61761212     2.55654575     2.42116581
O       6.94150732     2.37673146     8.24017322    -0.61761212    -2.55654575    -2.42116581
O       4.30246009     2.37667500     2.59528869     0.85500319     1.90993646     1.27311486
O       4.40107865     3.69038842     8.69455202    -0.85500319    -1.90993646    -1.27311486
O       0.49804297     0.65680014     2.59525259     0.61761212     2.55654575    -2.42116581
O       8.20549582     5.41026327     8.69458805    -0.61761212    -2.55654575     2.42116581
O       3.13709022     0.65685666     8.24020920    -0.85500319    -1.90993646     1.27311486
O       5.56644852     5.41020676     3.04963164     0.85500319     1.90993646    -1.27311486
