# total energy = -19940.53330304 eV

CRYSTAL
PRIMVEC
        6.76082699     0.00000000     0.00000000
        0.00002551     4.31733847     0.00000000
        0.00000000     0.00000000    10.32566908
PRIMCOORD
24 1
Ti      2.45048953     2.55845076     3.83074960     0.26753315     0.79054561     0.13164413
Ti      4.31036253     1.75888766     6.49491959    -0.26753315    -0.79054561    -0.13164413
Ti      5.83078670     1.75888911     1.33204374     0.26725265    -0.79100507    -0.13080081
Ti      0.93006541     2.55844948     8.99362550    -0.26725265     0.79100507     0.13080081
Ti      2.45047699     0.39978158     1.33208516     0.26753315     0.79054561    -0.13164413
Ti      4.31037506     3.91755695     8.99358414    -0.26753315    -0.79054561     0.13164413
Ti      0.93005282     0.39978002     6.49487817    -0.26725265     0.79100507    -0.13080081
Ti      5.83079924     3.91755851     3.83079096     0.26725265    -0.79100507     0.13080081
O       2.13985329     1.52020823     5.26910992     1.56825395     0.00132489     0.20611410
O       4.62099882     2.79713014     5.05655927    -1.56825395    -0.00132489    -0.20611410
O       1.24061747     1.52022566     0.10630856    -1.56776699     0.00133569     0.20559320
O       5.52023470     2.79711276    10.21936030     1.56776699    -0.00133569    -0.20559320
O       4.62098629     0.63846085     0.10627504    -1.56825395    -0.00132489     0.20611410
O       2.13986582     3.67887752    10.21939381     1.56825395     0.00132489    -0.20611410
O       5.52022211     0.63844347     5.26914337     1.56776699    -0.00133569     0.20559320
O       1.24062989     3.67889495     5.05652576    -1.56776699     0.00133569    -0.20559320
O       0.24565191     2.62605000     2.78922082    -0.87778266     0.43097413     1.19134295
O       6.51520020     1.69128836     7.53644831     0.87778266    -0.43097413    -1.19134295
O       3.62607318     1.69124823     2.37364657    -0.87739082    -0.43070982    -1.19191296
O       3.13477887     2.62609019     7.95202240     0.87739082     0.43070982     1.19191296
O       0.24563932     0.46738071     2.37361361    -0.87778266     0.43097413    -1.19134295
O       6.51521274     3.84995765     7.95205536     0.87778266    -0.43097413     1.19134295
O       3.13476634     0.46742090     7.53648121     0.87739082     0.43070982    -1.19191296
O       3.62608572     3.84991746     2.78918786    -0.87739082    -0.43070982     1.19191296
