# total energy = -19959.25190133 eV

CRYSTAL
PRIMVEC
        5.93400000     0.00000000     0.00000000
        0.00000000     9.29699974     0.00000000
        0.00000000     0.00000000     4.64899994
PRIMCOORD
24 1
Ti      4.39950700     6.80376002     2.12705098     0.69484886     2.84232963     0.11757453
Ti      4.47690198     2.50579202     2.25171498    -0.08088771    -3.07151014    -0.45097500
Ti      1.49480598     6.97319998     2.35995601    -0.48105692     1.94665929    -0.18374216
Ti      1.47275701     2.30047702     2.48438702    -0.01570739    -2.19364212     0.05091840
Ti      3.03904399     4.65423102     4.61726000    -3.12212335    -0.13675934     0.77570134
Ti      2.95715000     0.15740901     0.14151200     1.50324719    -0.45006355    -1.67832986
Ti      5.91359699     4.61291101     4.47549199     2.92633763    -0.20216155     0.37308829
Ti      0.00198002     9.28093699     0.15822400    -1.11632430    -0.76724755    -1.88452264
O       4.58906702     5.51191902     0.74986300    -1.27969328     0.06240301     0.81237043
O       4.51236500     0.77732899     1.05480801    -0.67914018     2.22040628     1.34615298
O       1.50149197     5.59175700     0.89488202     0.55586654    -1.09717343    -1.14678031
O       1.47011901     0.72673801     1.14175702    -0.61297359     1.03153443     0.14218103
O       4.40761998     8.63154898     3.84834799     0.35922541    -1.74410513    -1.26612248
O       4.42515702     3.69233701     3.69595098     0.18398230     1.17086976     0.80011937
O       1.42642601     8.45058798     3.65217701     0.32687346    -0.81385344    -0.12124067
O       1.57537798     3.70584903     3.74202999    -0.68851417     1.46122789     0.67805852
O       3.05766198     5.92247198     3.14551101    -0.39544893     0.57998787    -0.06808798
O       2.92195400     1.50556198     3.41377700    -0.29057153     0.47808601    -0.67551544
O       0.01822502     6.08461501     3.12988600    -0.53643773    -1.25632117     1.00040298
O       5.82159000     1.52560399     3.26898198     0.35034585     0.44622900     0.15880707
O       3.01541898     7.93032901     1.31339798     0.21845129    -2.85556927     2.01196585
O       2.78581098     3.13086498     1.42771202     1.92107140     1.22421246    -1.11102320
O       5.90098998     7.68658103     1.28363298     0.26081666     0.31629054     0.72389179
O       5.90456298     3.20269301     1.34420399    -0.00218724     0.80817079    -0.40489285
