# total energy = -19926.71503011 eV

CRYSTAL
PRIMVEC
        7.46861075     0.00000000     0.00000000
        0.00002628     4.28015565     0.00000000
        0.00000000     0.00000000    11.29938382
PRIMCOORD
24 1
Ti      2.70702785     2.53641641     4.19199096     0.30420558     0.07122113     1.88527958
Ti      4.76160936     1.74373960     7.10739333    -0.30420558    -0.07122113    -1.88527958
Ti      6.44120523     1.74374111     1.45765607     0.30408294    -0.07099564    -1.88563979
Ti      1.02743198     2.53641502     9.84172833    -0.30408294     0.07099564     1.88563979
Ti      2.70701482     0.39633864     1.45770136     0.30420558     0.07122113    -1.88527958
Ti      4.76162238     3.88381748     9.84168305    -0.30420558    -0.07122113     1.88527958
Ti      1.02741895     0.39633695     7.10734804    -0.30408294     0.07099564    -1.88563979
Ti      6.44121825     3.88381911     4.19203625     0.30408294    -0.07099564     1.88563979
O       2.36387178     1.50711564     5.76598926     1.49139517     0.78948786    -1.14920049
O       5.10476542     2.77304031     5.53339503    -1.49139517    -0.78948786     1.14920049
O       1.37049589     1.50713288     0.11633347    -1.49185719     0.78976836    -1.15021814
O       6.09814138     2.77302312    11.18305047     1.49185719    -0.78976836     1.15021814
O       5.10475240     0.63296249     0.11629682    -1.49139517    -0.78948786    -1.14920049
O       2.36388481     3.64719352    11.18308712     1.49139517     0.78948786     1.14920049
O       6.09812835     0.63294524     5.76602591     1.49185719    -0.78976836    -1.15021814
O       1.37050873     3.64721077     5.53335832    -1.49185719     0.78976836     1.15021814
O       0.27136788     2.60343333     3.05224557    -1.75852877     0.62996267     0.62319013
O       7.19726933     1.67672268     8.24713872     1.75852877    -0.62996267    -0.62319013
O       4.00568247     1.67668266     2.59748247    -1.75765331    -0.63003081    -0.62393395
O       3.46295474     2.60347335     8.70190159     1.75765331     0.63003081     0.62393395
O       0.27135485     0.46335544     2.59744640    -1.75852877     0.62996267    -0.62319013
O       7.19728235     3.81680056     8.70193765     1.75852877    -0.62996267     0.62319013
O       3.46294172     0.46339547     8.24717473     1.75765331     0.63003081    -0.62393395
O       4.00569549     3.81676054     3.05220950    -1.75765331    -0.63003081     0.62393395
