# total energy = -19519.43316832 eV

CRYSTAL
PRIMVEC
        5.17575250     0.00001323     0.00000000
        0.00001429     5.50856584     0.00000000
        0.00000000     0.00000000     9.26345890
PRIMCOORD
23 1
Ti      1.87596981     3.26437581     3.43667725     0.15066284    -0.05813601     0.24452769
Ti      3.29979698     2.24420330     5.82678192    -0.08115664    -0.02682844    -0.02095398
Ti      4.46375806     2.24420817     1.19501532     0.44242814    -1.01000143     0.96283273
Ti      0.71200873     3.26437116     8.06844395     0.49980207    -0.31553618    -0.85049090
Ti      1.87596277     0.51009300     1.19505247    -0.30988284     0.34907932     0.23205526
Ti      3.29980402     4.99848628     8.06840681    -0.68936958     0.34515890    -0.79450228
Ti      0.71200169     0.51008797     5.82674477     0.06201375     0.09360413    -0.11596425
Ti      4.46376510     4.99849130     3.43671440     0.00171698     0.04669485     0.22305022
O       1.63816338     1.93966386     4.72707227    -0.04663777     0.03361127    -0.05947092
O       3.53760342     3.56891526     4.53638690    -0.04120066     0.06822476    -0.10077545
O       0.94975320     1.93968434     0.09537250    -0.65977488     0.65349136    -0.20106523
O       3.53759638     0.81463229     0.09534245     0.35371425     0.10593566     0.01071148
O       1.63817041     4.69394683     9.16811646     0.13966032    -0.30876261     0.14275336
O       4.22600661     0.81461186     4.72710233     0.04362804    -0.02010398    -0.01843790
O       0.94976013     4.69396731     4.53635684     0.00239833    -0.03059511    -0.02979113
O       0.18805573     3.35062250     2.50229141    -0.31119770     0.09048770    -0.53537587
O       4.98771106     2.15795662     6.76116776     0.03815467     0.09078157     0.25606397
O       2.77593918     2.15789963     2.12946762    -0.06499854     0.20948251    -0.23078359
O       2.39982761     3.35067949     7.13399139     0.57121269     0.17606355     0.28195550
O       0.18804869     0.59633953     2.12943804    -0.02317208     0.15931975    -0.16905241
O       4.98771810     4.91223959     7.13402097    -0.30957765    -0.54758373     0.86361973
O       2.39982058     0.59639652     6.76119729     0.18522414    -0.04944387     0.02606097
O       2.77594622     4.91218260     2.50226183     0.04635212    -0.05494398    -0.11696698
