# total energy = -19958.36142594 eV

CRYSTAL
PRIMVEC
        7.60600008     0.00000000     0.00000000
        0.00000000     7.60600008     0.00000000
       -1.89786986    -1.89786986     4.85670466
PRIMCOORD
24 1
Ti      3.97940599     6.62117101     1.22607400    -4.47667639    -1.16833002    -0.33366144
Ti      3.85643498     2.75890099     1.21607800     0.44259552     0.91169964    -0.59219984
Ti     -0.09127000     6.65563701     1.34280902     1.29177104    -0.79132363    -2.75663139
Ti     -0.06962200     2.74793300     1.24809402    -0.57170171     0.88972081     0.66080410
Ti      5.66177323     2.86301223     3.73786779     0.20072970     1.82043607    -0.35435677
Ti      5.64017920    -0.84929879     3.67458984    -2.48857116    -1.85697095    -0.08971791
Ti      1.94968224     2.90679524     3.49495083     0.85941418     0.53543835     1.80934150
Ti      1.78770024    -0.94172876     3.57693182     2.80704663    -0.21452419    -0.04272404
O       3.87991998     4.75841703     0.84014900    -0.01074670     0.94450230    -1.09071327
O       4.05253802     0.90811102     0.65095999    -0.84366848    -0.65091177     0.26472037
O       7.20036799     4.90668799     0.78092100     1.41362492    -1.65432963     1.58650802
O      -0.00623799     0.97259900     0.68207000    -0.29059544    -0.07639933     2.40184679
O       5.48681924     4.72606424     4.07297781     1.07629169     1.19610103     0.52909697
O       5.51664923     0.97123822     4.02850882     0.58416977    -0.16378139     1.28221348
O       2.22808520     4.79499021     3.56031681    -2.17238063    -1.32370364     1.80859588
O       2.17255223     0.94695523     4.23144179    -0.77818965     0.32779418    -2.56048623
O       3.92934021     2.87999823     3.14848981    -2.33807261    -0.78665424     0.78023677
O       3.70172425    -1.07203378     3.13596180     2.28355389     1.27362573     0.16179727
O       0.07450223     2.69797724     3.27581181    -0.43405354     0.21801677    -0.60340728
O      -0.12800279    -1.06608980     3.29235881     1.67252277     0.42838297    -0.38863550
O       5.61595098     6.74369798     1.77135200     3.96672051     0.73927059    -0.58595566
O       5.70351399     2.88079697     1.79995101     2.42718965    -0.44149509    -1.78861917
O       2.03053598     6.81938498     1.53675799    -3.46052539     0.03588233     0.45220939
O       1.95632702     2.79575898     1.58965502    -1.16044856    -0.19244663    -0.55026205
