# total energy = -4985.74796725 eV

CRYSTAL
PRIMVEC
        3.97256222     0.00000000     0.00000000
        0.00000000     3.35160509     0.00000000
        0.00000000    -0.00007571     5.26154614
PRIMCOORD
6 1
Ti      1.98628100     1.67576464     2.63077323     0.00000000     0.00000000     0.00000000
Ti      0.00000000     0.00000000     0.00000000     0.00000000     0.00000000     0.00000000
O       1.98628100     0.65316370     1.02539790     0.00000000    -0.32491171     1.00884135
O       1.98628100     2.69836562     4.23614851     0.00000000     0.32491171    -1.00884135
O       0.00000000     1.02257076     3.65617214     0.00000000     0.32507266     1.00945713
O       0.00000000     2.32895851     1.60537433     0.00000000    -0.32507266    -1.00945713
