# total energy = -19958.79215364 eV

CRYSTAL
PRIMVEC
        7.60600008     0.00000000     0.00000000
        0.00000000     7.60600008     0.00000000
       -1.89786986    -1.89786986     4.85670466
PRIMCOORD
24 1
Ti      3.79166401     6.74878602     1.27988403    -0.30916704     1.06024106     1.22188638
Ti      3.77204000     3.02850098     1.26838998     0.17888405    -0.82001123    -0.67260135
Ti      0.06786698     6.49238202     1.13932301    -0.00776705     0.93101994     0.48297317
Ti      0.10055802     2.82341702     1.03544599     0.12769569    -0.71197472     2.79412400
Ti      5.70847323     2.76803623     3.50172779    -0.56078275     0.39947810    -0.59786038
Ti      5.75684220    -1.13109875     3.59195680     0.19818713     0.05764158     0.47039918
Ti      1.83277022     3.06328523     3.79514181     0.65253285    -1.71282842    -1.57409782
Ti      1.73854825    -0.89770676     3.68439380     1.04932904     1.35431238     0.89288558
O       3.62811601     4.91410499     0.94198599     0.61668909    -0.18459062    -0.34307142
O       3.66633398     1.09683997     0.80865502     0.19107623    -1.04599277     0.31290748
O      -0.10757099     4.70362998     0.55281200     0.55532069    -0.85884699     1.81078055
O       0.44624898     0.80486600     0.70725503    -1.46173542     1.17421965    -0.20365921
O       5.82243325     4.68611623     4.09095782    -0.60941724     0.04391523    -2.15162205
O       5.85385124     0.93265723     4.10069982     0.13324207    -1.42908806    -3.29201651
O       1.87099322     4.92971922     4.22912981    -0.09941843    -1.49338674    -0.45221993
O       1.79827622     1.20393121     4.19675083    -0.33500073    -1.42709185    -0.37507164
O       3.74520420     2.91756024     3.42518183     1.86049619     0.32072416    -0.42008242
O       3.57906821    -0.92413176     3.26488081     2.56493578     0.47197398    -0.17166799
O       0.08052723     2.86451922     2.95089280    -1.21093322     0.51536599     1.98727091
O       0.00397121     6.26449924     3.08590782    -1.93280926     1.13169590     1.28296527
O       5.72209298     6.56673301     1.58664300    -1.07633977     0.63570806     0.76171042
O       5.67216903     2.82913102     1.54395099     0.81589592    -0.21979469     0.32709175
O       1.78207498     6.31049099     1.74589000     1.28504581     1.00637720    -1.06763376
O       2.08179902     2.77143498     1.82768599    -2.62595965     0.80093287    -1.02338994
