# total energy = -19077.20523042 eV

CRYSTAL
PRIMVEC
        5.17575250     0.00001323     0.00000000
        0.00001429     5.50856584     0.00000000
        0.00000000     0.00000000     9.26345890
PRIMCOORD
22 1
Ti      1.91826158     3.42936135     3.29560275    -0.04290453    -0.00760558     0.02048193
Ti      3.40319431     2.25744686     5.92080218     0.00413999     0.00585158     0.02316128
Ti      4.47341127     2.24548012     1.13152884     0.00994786     0.02690403     0.00369596
Ti      0.75219518     3.28875771     8.09721317    -0.02224622    -0.05474189    -0.04171076
Ti      1.81492103     0.63097380     1.23685282     0.01282158     0.00127372    -0.01005585
Ti      3.20407988     4.98284510     8.14480953    -0.01524228     0.01134808    -0.04669896
Ti      0.78229801     0.56573364     5.79698819     0.00957351    -0.02628028    -0.04485317
Ti      4.47425130     4.94422550     3.49827915    -0.00783184     0.01105729     0.04965573
O       3.44578502     3.48708411     4.52589019     0.07952836     0.00653215     0.01640339
O       0.94531481     1.93750504     0.12253563     0.03653719     0.00763387     0.04746541
O       4.15580976     3.61399972     9.13164408    -0.00452540     0.02724985     0.02752958
O       3.55552632     0.83774082     0.07194992     0.03356628    -0.03926333     0.01089145
O       1.57516618     4.72236398     9.13485294    -0.06562332     0.00372399    -0.06189008
O       4.26285517     0.81476091     4.72942976     0.06239221    -0.00907677    -0.03193826
O       0.92924403     4.60106669     4.58681982     0.03218328     0.01195563     0.02221228
O       0.17368488     3.29667646     2.50249909    -0.02707527     0.05512910     0.02448822
O       5.09588983     2.05445659     6.78300435     0.02180990    -0.02966900     0.05507485
O       2.74099176     2.09616584     2.16446651    -0.03189737    -0.03372003     0.00816840
O       2.35749822     3.39055959     7.06564157    -0.02668369    -0.01182219     0.00157223
O       0.19855895     0.52720339     2.18936660    -0.01483424    -0.00322159    -0.01042583
O       2.43870430     0.65177800     6.70261719     0.01162242     0.02268099    -0.04982080
O       2.78567828     4.87486133     2.46762186    -0.05525817     0.02406039    -0.01340728
