# total energy = -4987.03735789 eV

CRYSTAL
PRIMVEC
        3.19261336     0.00000000     0.00000000
        1.69879551     4.70505729     0.00000000
       -0.00001104    -0.00006628     5.08313466
PRIMCOORD
6 1
Ti      2.44569891     2.35249545     2.54156733     0.00000000     0.00000000     0.00000000
Ti      0.00000000     0.00000000     0.00000000     0.00000000     0.00000000     0.00000000
O       1.92737472     0.91693344     0.99062809    -0.15908013     0.31137948    -0.03603994
O       2.96402310     3.78805746     4.09250663     0.15908013    -0.31137948     0.03603994
O       0.51831955     1.43553522     3.53219644     0.15893949    -0.31122264    -0.03616489
O       1.18046502     3.26945566     1.55093828    -0.15893949     0.31122264     0.03616489
