# total energy = -19961.17881267 eV

CRYSTAL
PRIMVEC
        5.93400000     0.00000000     0.00000000
        0.00000000     9.29699974     0.00000000
        0.00000000     0.00000000     4.64899994
PRIMCOORD
24 1
Ti      4.48653401     6.96507102     2.36461499    -0.30945089     0.53173236    -0.00173010
Ti      4.43595900     2.41630900     2.37913498    -0.08388896    -0.92053678    -0.13185188
Ti      1.49245400     6.89982998     2.19605400     0.19712372     0.99404876     0.71352099
Ti      1.48487501     2.36784499     2.36635800     0.06339340    -0.75851865    -0.17491041
Ti      2.97558601     4.65181400     0.00674002    -0.30639231     0.27434015    -0.20770613
Ti      2.97298097     9.24469999     0.02005201    -0.65336538    -0.05575131    -0.18505368
Ti      5.90225402     4.64746602     4.63264699     0.41917765     0.11604010     0.15474036
Ti      0.00644099     0.05045298     4.61534798     0.60026051    -0.27788750     0.19340154
O       4.42426101     5.55397999     0.82902199     0.13384680     0.23473615     0.32361896
O       4.40249997     0.76011200     0.86739602     0.69251764     1.44912467     1.17840721
O       1.48179600     5.55107099     0.85907000    -0.08059357    -0.16455015    -0.12413651
O       1.47746198     0.91406199     0.97683601    -0.11488465    -0.11398270    -0.39999027
O       4.43248803     8.34439899     3.74599098     0.16781931    -0.21198136    -0.57545192
O       4.45682700     3.71816600     3.80212701    -0.19135725    -0.11581950    -0.33990768
O       1.46864600     8.37362698     3.77355302    -0.28532339     0.10444056    -0.38874683
O       1.45761201     3.76365899     3.75045697     0.31359474    -0.17478237     0.02320036
O       2.96891398     5.98925002     3.06339900     0.08293791    -0.45862532     1.25122396
O       3.04005202     1.45406399     3.24734297    -0.36940827     0.05626141    -0.16345460
O       5.86504000     6.03435402     3.25896201     0.43722294    -0.02126175    -0.49894538
O       5.89824699     1.53987802     3.30434103     0.44200982    -0.82242833     0.05262176
O       2.92067000     7.84415101     1.41001199     0.20223174     0.09809251    -0.05893871
O       3.00794800     3.32821401     1.49951899    -0.30906548    -0.17647262    -0.50878705
O       0.02977998     7.82424400     1.38193702    -0.48258647    -0.03939471     0.24566746
O       0.06358499     3.21887303     1.44061997    -0.56581980     0.45317638    -0.37679171
