# total energy = -19516.98541059 eV

CRYSTAL
PRIMVEC
        5.93400000     0.00000000     0.00000000
        0.00000000     9.29699974     0.00000000
        0.00000000     0.00000000     4.64899994
PRIMCOORD
23 1
Ti      4.62125899     7.24967901     2.20891602    -1.04679624    -1.68517748     0.30409965
Ti      4.51273199     2.30741898     2.35379401    -0.63966962    -1.14647641     0.09338713
Ti      1.31353901     7.00941602     2.12024798    -0.23240904     0.37503050     0.48817168
Ti      1.48371501     2.27071598     2.34839899     0.78803878    -0.79708881     0.89671730
Ti      3.03342498     4.44980101     0.20903703    -1.75505135    -0.94068961     1.06118183
Ti      2.92619599     9.22087802     0.03926702    -0.27680893     1.10448616    -0.38126672
Ti      5.89212901     4.60551301     0.04299099     1.02122636     0.41319700    -0.77932583
Ti      5.91545102     0.07830400     4.57451899     0.53544349     1.35864341    -1.02699283
O       4.35124000     5.47749202     1.04287400     0.03279058     0.89843068    -0.16866494
O       4.42446099     0.91830203     0.73283000     0.59571582     0.85510372     1.81467680
O       1.40795598     5.60524001     0.82119303     1.05490525     0.73846558     1.05479263
O       1.46379799     0.94204499     0.77994498     0.46048012    -0.01945246     1.12629067
O       4.49904498     8.48032901     3.53736402    -0.22435686    -0.05990698     1.24949772
O       4.41886801     3.54789300     4.08700402    -0.09567464    -0.17884780    -2.45833395
O       1.58183902     8.39278299     3.77341602    -1.19381352    -1.80600704    -1.62716386
O       1.49891901     3.73082000     3.81369403     0.39878905     0.61269951    -0.36007953
O       2.93770702     1.27960901     3.20179002     0.76778337     0.88126059    -0.72752091
O       5.80740699     6.07195900     3.24557600     0.36893981    -0.00174835    -0.25836254
O       0.04116300     1.56446999     3.34764900    -0.64734797    -0.58104150    -0.86757023
O       2.98006798     7.88759303     1.46997100    -0.49815631    -1.01108824     0.14577595
O       2.95072600     3.20574700     1.61380000     0.70481343     1.29418403    -0.81078406
O       5.88473699     8.06938801     1.25739801     1.51573890    -1.12385789     0.69742125
O       0.15905100     3.12645799     1.36040702    -1.63458047     0.81988114     0.53405278
