# total energy = -4988.38000600 eV

CRYSTAL
PRIMVEC
        4.12770500     0.00000000     0.00000000
        0.20624751     4.12254904     0.00000000
       -2.16701290    -2.06130937     5.26951767
PRIMCOORD
6 1
Ti      0.15451889     3.09206832     1.31737927    -0.00054353     0.00054353    -0.00000000
Ti      2.01242020    -1.03082916     3.95213811     0.00054353    -0.00054353    -0.00000000
O       0.05160530     1.03063051     0.85836134    -0.00036330    -0.00174321    -0.93404047
O       2.11533361     1.03060853     4.41115610     0.00036330     0.00174321     0.93404047
O      -0.05158494    -1.03061115     3.49312017    -0.00174321    -0.00036330    -0.93404047
O       2.21852385     3.09185014     1.77639732     0.00174321     0.00036330     0.93404047
