# total energy = -19075.59104646 eV

CRYSTAL
PRIMVEC
        7.60600008     0.00000000     0.00000000
        0.00000000     7.60600008     0.00000000
       -1.89786986    -1.89786986     4.85670466
PRIMCOORD
22 1
Ti      3.83727199     6.55356099     1.16739999     0.26404314     1.02789889    -0.44660413
Ti      3.68280399     2.88036802     1.31750202     0.98143903    -1.48052017    -0.07150292
Ti     -0.00051902     6.71984298     1.08747698     0.10768581    -1.11106305    -0.28919599
Ti     -0.06375898     2.82851400     1.10133602    -0.77631635     1.33621464     0.15305860
Ti      5.78470121     2.78668725     3.57928279    -1.51250136     1.68251433    -0.09223065
Ti      6.14581621    -0.92822680     3.72359382    -0.58225455    -1.39772599    -0.94176741
Ti      1.75770224     2.80168725     3.65089180     1.46043419    -1.27492620    -0.27527192
Ti      1.54846921    -0.96711476     3.76596181     1.33337202     1.07433483    -0.13094273
O       3.50504399     4.65717901     0.76058101    -0.01525539     1.80049433     0.65152318
O       3.97440299     1.06953803     0.79545898    -0.37884319    -2.08471575     0.39365507
O       0.18159601     4.77225501     0.64697697     0.13159605    -0.29310921     0.66611214
O       7.25040800     0.96167302     0.68630199     0.70808104     0.18361926     0.56140264
O       5.62176320     4.74159522     4.02785381     0.53810561     1.47096209    -0.26881151
O       5.78356825     0.93403023     3.91545079     0.40034765    -0.74500519     0.19224480
O       2.09145423     4.66401122     4.12843781    -0.50657333     1.54123705     0.00811595
O       2.05580424     0.91396420     4.10630783    -1.23752820     0.26544953    -0.74649900
O       3.82599221     2.79318120     3.22276084    -0.41439565     0.15589813    -0.45220271
O      -0.00625980     3.09663123     3.20399881     0.21989625    -0.58978429    -0.23565609
O       5.81353698     6.42676002     1.81195302    -0.63357970     0.65182940     0.15868366
O       5.75707499     3.16299201     1.57416500    -0.46955303    -0.73154391     0.34039953
O       2.08129000    -0.62550698     1.83999301    -0.86961837    -1.47891374     0.53522597
O       1.74809101     2.65915701     1.61958301     1.25141834    -0.00314523     0.29026351
