# total energy = -19961.26601458 eV

CRYSTAL
PRIMVEC
        7.60600008     0.00000000     0.00000000
        0.00000000     7.60600008     0.00000000
       -1.89786986    -1.89786986     4.85670466
PRIMCOORD
24 1
Ti      3.76456701     6.69465801     1.27255302    -0.13416433     0.37009321     1.25650629
Ti      3.76887398     2.95425498     1.18766002     0.14383194    -0.20209958     0.57866066
Ti      0.02104300     6.52673499     1.18785200     0.18799450    -0.23360255    -0.24696355
Ti      0.04962598     2.74319999     1.16090201    -0.23102579     0.42887585    -0.72491458
Ti      5.72661020     2.84356121     3.52604079    -0.45385053    -1.02702137     0.67375732
Ti      5.70994323    -1.04586380     3.59423480    -0.16401176     0.72431422     0.47317006
Ti      1.90887723     2.99891421     3.75646282     0.38385145    -1.30411414    -1.89168702
Ti      1.82072720    -0.93284779     3.72680180     0.37818833     0.90169547    -0.87238900
O       3.76173999     4.84861000     0.92563198     0.03886764    -0.66303813    -0.90940312
O       3.74478398     1.08686101     0.83389698    -0.09296161    -1.34323324    -0.16024406
O       0.07100802     4.70597900     0.70865899    -0.13187656    -0.59859752    -0.20281281
O       0.24942399     0.86255902     0.73384502    -0.66680197     0.29676249     0.20358645
O       5.79169223     4.66733721     4.06392782    -0.41308619     0.96198272    -0.18106281
O       5.76319222     0.88840124     3.87922379    -0.05317403     0.18764509     0.84530447
O       1.73960925     4.81341421     4.15474580     0.22291910     0.59324319     0.30059961
O       1.86019424     1.10243523     4.02841383    -0.32921240    -0.79874743     0.78874584
O       3.78236620     3.02734224     3.29946683    -0.23615668    -0.10196613    -0.67063548
O       3.82264024    -0.90920780     3.29474381    -1.08120122    -0.10581482    -0.21263365
O      -0.10445477     2.95580023     3.08400982     1.73139437    -0.20176200     0.58532599
O       0.00262620    -1.02594276     3.17355979     0.16305068     0.42252085     0.34805294
O       5.65668302     6.45173501     1.62337801     0.46401153     0.70187106    -0.30708676
O       5.74630401     2.81394300     1.43541700    -1.24378216     0.01424032     0.69250093
O       1.87381601     6.41990601     1.72716400     0.80718014     0.84465887    -0.01202891
O       1.87946101     2.89498300     1.74540300     0.71001554     0.13209382    -0.35434880
