# total energy = -4986.16741718 eV

CRYSTAL
PRIMVEC
        3.46518805     0.00000000     0.00000000
        0.34564663     3.44790612     0.00000000
       -1.90544808    -1.72398087     4.42790319
PRIMCOORD
6 1
Ti      0.25910219     2.58606075     1.10697558     0.00137220    -0.00139380     0.00259759
Ti      1.64628411    -0.86213577     3.32092708    -0.00137220     0.00139380    -0.00259759
O       0.08644819     0.86197108     0.72126917     0.00072608     0.00329718     1.97278016
O       1.81893801     0.86195381     3.70663358    -0.00072608    -0.00329718    -1.97278016
O      -0.08642901    -0.86195373     2.93522067     0.00329153     0.00063789     1.97761898
O       1.99181516     2.58587857     1.49268208    -0.00329153    -0.00063789    -1.97761898
