# total energy = -4841.25377570 eV

CRYSTAL
PRIMVEC
        5.36243898     0.00000000     0.00000000
       -0.00000663     1.78747966     0.00000000
       -2.68125362    -0.89385614     6.08325789
PRIMCOORD
6 1
Ti     -0.00022950     1.34065237     1.52081410    -0.08398794    -0.05446987   156.94492164
Ti      2.68140808    -0.44702890     4.56244290     0.08398794     0.05446987  -156.94492164
O       0.00005662     0.44685054     0.99091284     0.08278621     0.05324242  -151.68367746
O       2.68112182     0.44677288     5.09234421    -0.08278621    -0.05324242   151.68367746
O      -0.00002460    -0.44692561     4.03254164    -0.00089449     0.00006582    -0.21522995
O       2.68120293     1.34054898     2.05071541     0.00089449    -0.00006582     0.21522995
