# total energy = -19517.82004357 eV

CRYSTAL
PRIMVEC
        5.17600016     0.00000000     0.00000000
        0.00000000     5.50899976     0.00000000
        0.00000000     0.00000000     9.26300011
PRIMCOORD
23 1
Ti      1.81676800     3.16594001     3.45086100     0.37012201    -0.12183794     2.08217293
Ti      3.40851200     2.19244199     5.88565500    -0.67308446     0.68237977    -2.87304610
Ti      4.36840498     2.11955200     1.40749602     0.24105258    -0.52845394    -0.27803097
Ti      0.84409201     3.38532102     7.77131601     0.31948437     0.51252749    -0.03921242
Ti      1.96426399     0.30025702     1.35439499     0.41532613    -0.70827825    -0.55520757
Ti      3.31029797     5.14487798     7.90465201    -2.00954361     1.93672248     0.87869386
Ti      0.73005500     0.55476202     5.89069103    -0.06128509     0.06897064    -3.04254485
Ti      4.50984898     4.97894302     3.32004097     0.42705885    -0.48749162     3.01338313
O       1.64959302     1.88367701     4.78997398    -0.38204010     0.18941375    -0.00010696
O       3.46219502     3.51122001     4.53200002     0.66608386     0.11006048     0.29578290
O       0.24052699     2.65938900     9.25629199    -0.42392802    -0.32478624     0.90660551
O       3.45536398     0.89453498     0.23009701    -0.04666425    -1.05758125    -1.24111721
O       1.73504700     4.71609899     9.07025798     0.14646192     0.18303125     0.29306139
O       4.28449302     0.80333202     4.73509999    -0.43706867     0.03366578    -0.01574081
O       0.96938202     4.73562399     4.38035200    -0.34133387    -0.09272867     1.11965799
O       0.15325402     3.32248397     2.53981299    -0.55901074     0.55220040    -0.35372582
O       4.93824299     1.98310201     6.89072300     0.85857188     0.72469038    -0.00623544
O       2.59574200     1.88640000     2.19712198     0.12114297     1.28672962     0.36978211
O       2.65863402     3.53659999     7.14392902    -0.00097573    -0.58397333     0.00339694
O       0.19298301     0.68015798     2.09571098     0.29669616    -0.34502212    -0.58590835
O       4.99354799     4.90953602     7.11276699     0.35908117    -1.60411057     0.75517364
O       2.32271199     0.93681699     6.89770999     0.60433674    -1.22404996     1.15201919
O       2.78290400     4.61587001     2.53636302     0.10951567     0.79792236    -1.87885336
