# total energy = -19072.90193275 eV

CRYSTAL
PRIMVEC
        5.93400000     0.00000000     0.00000000
        0.00000000     9.29699974     0.00000000
        0.00000000     0.00000000     4.64899994
PRIMCOORD
22 1
Ti      4.47496000     6.66198602     2.44655698    -0.32024747     1.98946586    -0.37478033
Ti      4.40085799     2.51947798     2.14427601     1.68507747    -1.50846396    -0.21943628
Ti      1.49403502     7.21423201     2.41984300     1.71497658     0.10228006    -0.05482545
Ti      1.55266998     2.27443102     2.17116700     0.37411647     1.39333660     0.50410867
Ti      3.05349302     4.57589802     4.50271800    -1.77772232    -0.39237388     0.83228234
Ti      2.92175101     0.14173102     0.13507397     2.34440087    -0.76696087    -0.09425719
Ti      5.80280998     4.71425898     4.42795298     1.52482569    -1.30379456     0.92485212
Ti      5.90689602     8.96685500     0.19251198    -2.13048809     0.00586880    -0.49192009
O       4.46141698     5.35702402     0.97729799    -0.85538037     1.55616411     1.22199771
O       4.58071698     0.93477299     0.93781999     0.68378334    -0.46538733    -0.91545962
O       1.30268802     0.95731398     0.84759701     0.04336810     0.12804793     0.09120015
O       4.43031501     8.30941402     3.85845999     0.09205093     1.06966133     0.38328169
O       4.37051502     3.86969802     3.50555300     1.33394049    -0.86747664    -0.22668859
O       1.64941400     8.38045401     3.78688400    -0.86403831     1.17997352     0.79676820
O       1.48702702     3.73046302     3.79708702    -0.61089614     0.13813180    -0.50774164
O       2.93839199     5.99912902     3.36686602    -1.32979356     0.97646241    -1.01023334
O       3.07199702     1.48012702     3.02014998    -1.23489616    -0.94628201     2.12097578
O       0.07172400     6.40968997     3.65159100     0.52807702    -1.74854800    -0.45628742
O       3.04497199     8.09051901     1.50462402    -0.81414757    -1.68527442     0.39551295
O       3.02708400     2.90722700     1.15224002    -2.18110336     2.65502778    -1.98051404
O       5.84679202     7.89689300     1.67845599     0.20459201    -0.31797025    -1.01034056
O       5.88027100     3.43897398     1.41221803     1.58950439    -1.19188751     0.07150498
