# total energy = -19959.99623927 eV

CRYSTAL
PRIMVEC
        7.60600008     0.00000000     0.00000000
        0.00000000     7.60600008     0.00000000
       -1.89786986    -1.89786986     4.85670466
PRIMCOORD
24 1
Ti      3.94037001     6.74949998     1.11599799    -2.38169910     1.40843926     0.96638291
Ti      3.86932098     2.98739597     1.21980098     0.07059378    -1.27701265    -0.44418600
Ti     -0.10076598     6.56942202     1.22225699     3.29982496     0.79815634    -0.35144062
Ti      0.07440603     2.78584601     1.28141700    -0.95803762    -1.63438172    -0.15741713
Ti      5.64766521     2.69792321     3.69623181     0.40156173    -0.19548490    -0.38012077
Ti      5.72305323    -1.03503678     3.70099584    -0.82091009     0.37958341     0.18192027
Ti      1.94362221     2.92319323     3.63447884    -0.40274109    -0.01021731    -0.80341630
Ti      1.87821723    -0.76128275     3.62965279     0.45375565    -0.90991323    -1.90958911
O       3.83441798     4.85359998     0.63722900     0.22037653     0.01670498     1.89820657
O       3.79521701     0.98571402     0.62744599     0.31850375     0.40896265     1.84477029
O      -0.04984299     4.56137899     0.77909100    -0.35821754     1.36185831     1.19540169
O      -0.18558601     0.86143500     0.76450200     0.32347267     0.84050628     0.30148741
O       5.63907624     4.69722921     4.09878779    -0.41297151    -1.06077379    -0.36803684
O       5.67226624     0.83048623     4.03686183    -0.08930370     0.34839849     0.97164159
O       2.01672323     4.90447323     4.01353183    -0.01037055    -2.35181285    -1.10289594
O       1.88345322     1.02117922     4.20384583    -0.08105431     0.88376870    -1.78121696
O       3.78370724     2.58654722     3.05468880    -1.62129326     0.75264908     2.71836076
O       3.68744324    -0.73432080     3.09213179     1.44300879    -0.68915001     0.01971677
O      -0.11748375     2.59922822     3.33455181     2.21361086     1.14770848    -1.16198865
O      -0.06230877    -0.96604080     3.26115381     0.51832610    -0.27669863    -0.29741684
O       5.74574901     6.74127101     1.67154298    -1.65839352    -0.69228418    -0.22051897
O       5.61680502     2.68728998     1.78577398     1.34523355     0.93580091    -1.93177028
O       1.85355101     6.85621201     1.49124202    -0.82131864    -0.90913676     0.46219505
O       1.91270699     2.71651300     1.59485398    -0.99195768     0.72432939     0.34993138
