# total energy = -4984.11528144 eV

CRYSTAL
PRIMVEC
        3.72483329     0.00000000     0.00000000
        0.00000000     2.81004910     0.00000000
        0.00000000    -0.00007429     4.92666889
PRIMCOORD
6 1
Ti      1.86241659     1.40498726     2.46333450     0.00000000     0.00000000     0.00000000
Ti      0.00000000     0.00000000     0.00000000     0.00000000     0.00000000     0.00000000
O       1.86241659     0.54762265     0.96013523    -0.00000000    -2.45217435    -1.78395982
O       1.86241659     2.26235187     3.96653376    -0.00000000     2.45217435     1.78395982
O       0.00000000     0.85733507     3.42347074     0.00000000     2.45096516    -1.78454989
O       0.00000000     1.95263944     1.50319825     0.00000000    -2.45096516     1.78454989
