# total energy = -39029.03728813 eV

CRYSTAL
PRIMVEC
        5.93200024     0.00000000     0.00000000
        0.00000000     9.29399984     0.00000000
        0.00000000     0.00000000     9.29399984
PRIMCOORD
46 1
Ti      4.38582100     6.97140797     7.02033099     2.43743910     2.59434433     0.21693048
Ti      4.41615502     6.71322298     2.43475802     0.24713170    -1.09238346     0.38810791
Ti      4.54372600     2.23785699     7.01821899    -0.09408313    -0.00208542    -1.88869632
Ti      4.19836398     2.81104998     2.24128098     1.10274707    -1.09336357     0.25729039
Ti      1.41851100     7.16026901     7.09819302    -0.66703671    -1.30751854    -0.42551542
Ti      1.52904401     7.15601199     1.94298799    -1.08417933    -3.55736783     2.63157828
Ti      1.57745198     2.17432899     6.85523600     0.58812618     2.64131120     0.74335094
Ti      1.19173098     2.05531698     2.50582002    -2.20614797     2.31287373    -0.20265957
Ti      3.08850698     4.84002902     4.75277002    -3.20841963    -2.02599199     0.58910603
Ti      2.98420001     4.70900700     8.96636101    -2.07216336    -0.38910293     0.37190738
Ti      3.00568497     9.09263398     4.63580697     0.06425703     0.61937847     0.62110111
Ti      3.05185500     0.03185901     0.28872699    -2.34838659     1.95771349    -3.35698471
Ti      0.10247602     4.80207399     4.70076697     3.32963125    -2.12111693     1.64214106
Ti      5.91017099     4.57884300     9.21308202     1.72433334    -0.25878009     0.05195199
Ti      0.03963998     9.11764702     4.74561702    -0.82859307     0.92311971    -0.22637929
Ti      5.85261302     0.02042698     0.04119999     1.26646804     0.29047512    -1.15859659
O       4.27688002     5.85671800     5.67164001     3.20635529    -1.74533721    -2.21131229
O       4.46532501     5.39155702     0.81950400    -0.64582124    -0.52520818     1.35992356
O       4.48632202     1.02007202     5.39398102    -0.77628190    -1.44384003    -0.62815056
O       4.40769200     1.05224600     0.85075398     1.69595761     0.39500232     0.88065484
O       1.56391102     5.83186001     5.60282098    -1.47050777    -0.93885512     0.01487281
O       1.79260302     5.40761300     0.94839702    -1.38380243     0.43694397    -0.78651798
O       1.47870401     0.83512102     5.64903599     0.13597310    -1.15045288    -2.43825568
O       1.47081398     0.85881800     0.96784900    -1.20873621    -0.63849257    -0.41807053
O       4.73879302     8.29759199     8.36488699    -1.30285507     2.07707340     1.10709378
O       4.45627602     8.27332398     3.57569899    -0.36877321     0.52428927     0.51905758
O       4.40885899     3.61524102     8.30719000     1.14717395     0.72618265     1.76317424
O       4.41942100     3.76027200     3.77941699     0.52929366    -0.15169077    -0.12426326
O       1.61776100     8.41611701     8.37720099    -0.71252263     0.49707850     1.07185474
O       1.42440799     8.17811001     3.84152901     0.84706696     0.45051092    -1.95588030
O       1.45379098     3.86545899     8.11618500    -0.09474313     0.16106425     2.17293188
O       1.71368798     3.86244803     4.01226297    -3.41995465    -1.75987089    -1.05998549
O       3.13949602     6.09925798     7.80199802    -3.49728652    -0.96973614     2.15932688
O       2.83440898     5.85646199     3.20446898     1.71926107     3.33768318    -2.22157177
O       2.90358700     1.34519302     7.94118699     0.91423552     0.16671810    -0.41574394
O       2.71280802     1.39605902     2.76919402     5.27265808    -0.03355831     2.83805003
O       5.90355802     6.14132398     8.10120701     0.59077699    -0.29891194    -1.22906233
O       0.04177399     5.83991901     3.32775998    -1.27410550     2.26900427    -2.52299490
O       0.06750899     1.45889400     7.92174200    -0.43672209    -0.94083256     0.85703822
O       2.86163700     7.94904098     6.15804301     1.37787629     1.26706813    -0.97557589
O       2.99833798     7.71233698     1.08798102     1.53085724    -0.69648922     1.75937106
O       2.91818202     3.51338001     6.19632502     0.93050726    -2.37699398     0.19742994
O       5.89126301     7.91090000     6.05055299     0.39297244    -0.40057725     0.87982926
O       5.81560702     7.56449899     1.29927800     0.54632260     1.57870421     0.01603546
O       0.02160303     3.04887399     6.00389199    -0.85008133     1.09248502     0.12766046
O       0.20017003     3.35770998     1.60682201    -1.64621780    -0.40046592    -0.99155376
