# total energy = -4985.46662604 eV

CRYSTAL
PRIMVEC
        4.24703786     0.00000000     0.00000000
        1.44228469     3.99463959     0.00000000
       -2.84470002    -1.99734700     5.50770232
PRIMCOORD
6 1
Ti      1.08159108     2.99613291     1.37692564     0.00019103    -0.00019103     0.00000000
Ti      1.76303072    -0.99884084     4.13077680    -0.00019103     0.00019103     0.00000000
O       0.36061541     0.99865440     0.89715976    -0.00073328    -0.00118091    -1.55434711
O       2.48400618     0.99863753     4.61054280     0.00073328     0.00118091     1.55434711
O      -0.36058097    -0.99863027     3.65101092    -0.00118091    -0.00073328    -1.55434711
O       3.20520250     2.99592215     1.85669164     0.00118091     0.00073328     1.55434711
