# total energy = -19958.17628777 eV

CRYSTAL
PRIMVEC
        7.60600008     0.00000000     0.00000000
        0.00000000     7.60600008     0.00000000
       -1.89786986    -1.89786986     4.85670466
PRIMCOORD
24 1
Ti      3.96672198     6.58484701     1.08756799    -1.82452284    -0.97443663     0.77981176
Ti      3.96734699     2.51661798     1.15125702    -2.60977635     1.91985476     0.19532421
Ti     -0.10670801     6.67807000     1.21263898     2.81661293     3.09313595     0.53504445
Ti     -0.07487498     3.02137000     1.34955402     2.12121335    -3.32913066    -0.29094408
Ti      5.53856923     2.88988723     3.73529081    -0.67704010    -0.06656563    -1.17199642
Ti      5.68530125    -0.76309275     3.67745983     2.33023897    -0.29727311     3.33376404
Ti      1.75431625     2.78142722     3.70883380     1.34630468    -0.34512111    -0.73872783
Ti      2.08848120    -0.97897976     3.49878583    -1.88988365    -0.12606098    -1.31344931
O       3.77551600     4.77826599     0.83628500     0.84611180    -0.49778941    -0.87007552
O       4.22469599     0.80240797     0.63376300    -0.10708160     0.05287424     0.27275584
O      -0.21489602     4.89184801     0.88353598     0.27944251    -1.08690418    -1.20237992
O      -0.24302100     1.17982402     0.82753400     0.76325308    -0.54202577     0.24509461
O       5.60877825     5.01876525     4.02349079    -0.14247825    -3.55109073     1.50093062
O       5.34461021     1.08115124     3.99038880     1.15164176     1.93661501     1.24415445
O       2.00225225     4.70351224     3.88923180    -0.02338214    -0.34502597     0.76972198
O       1.96567425     0.86848724     4.06538279    -0.03804206     0.30058804     0.26561254
O       3.62323424     2.70634925     3.01366079     2.79681517     0.69351034     1.91724329
O       3.94821623    -0.82555477     3.18103579    -3.10417422    -0.33733297    -1.33113028
O      -0.08794079     2.65749624     3.41426680    -0.61977725     1.13094257    -1.14338671
O       0.08419924    -0.92688676     3.37022079     0.66743112     0.33736563    -1.13338075
O       5.82549798     6.73275099     1.88452603    -1.10333174    -0.31379374    -3.94825741
O       5.71535201     2.90216102     1.62553202    -0.51218579     0.72924226     1.38352167
O       1.96558598     6.57302000     1.45929898     0.27589721     0.76429824     1.11187989
O       1.95707400     2.61751902     1.58676503    -2.74328684     0.85412413    -0.41113112
