# total energy = -19962.46289423 eV

CRYSTAL
PRIMVEC
        7.60600008     0.00000000     0.00000000
        0.00000000     7.60600008     0.00000000
       -1.89786986    -1.89786986     4.85670466
PRIMCOORD
24 1
Ti      3.80409099     6.62898002     1.20676099    -0.20840727     0.12455251     0.30193041
Ti      3.79345898     2.84814298     1.21397198     0.17906043    -0.01771876    -0.04452150
Ti     -0.00559901     6.66028800     1.21807099     0.20939303     0.13916332    -0.34195325
Ti     -0.01272502     2.86643801     1.20745299    -0.08294485    -0.26718451     0.06321831
Ti      5.70097024     2.85456825     3.64757481     0.16929178     0.07405140    -0.06955248
Ti      5.71345522    -0.94995275     3.63351081    -0.12933091    -0.12806670     0.21204178
Ti      1.90518521     2.85054121     3.63872379    -0.16576345    -0.11581179    -0.19030696
Ti      1.89683522    -0.96386779     3.66018780     0.07619776     0.12581107    -0.49095079
O       3.76779499     4.76094797     0.76608202     0.16508880    -0.12115891     0.29433486
O       3.78361501     0.93874599     0.74941902     0.05373479    -0.07149264     0.49922769
O       0.00479800     4.75970901     0.79111300    -0.00472209    -0.35243461    -0.13112708
O      -0.01102599     0.95609999     0.80751999     0.11696081    -0.09831336    -0.37780549
O       5.70768624     4.73172824     4.01649883     0.03692877     0.44032703     0.40604239
O       5.70960922     0.92779922     4.02874780    -0.07559946     0.22935174     0.40910046
O       1.88950521     4.73708224     4.05324283    -0.01365385     0.12323302     0.00109709
O       1.88012825     0.94311922     4.09219684     0.14611739     0.15002161    -0.33368278
O       3.81386421     2.88312324     3.21578882    -0.22270261    -0.25631620     0.04838664
O       3.81211724    -0.96633280     3.22776982    -0.35477252     0.01534821    -0.34565024
O      -0.03382877     2.80522724     3.22407383     0.83283822     0.13965646    -0.25923312
O      -0.00841476    -0.96001977     3.19357782     0.19949068    -0.02550664     0.27377862
O       5.71897698     6.65202500     1.61368602    -0.67241340    -0.01443983     0.06390736
O       5.72525498     2.86236600     1.61591200    -0.44851137     0.01063254    -0.05916188
O       1.87128998     6.65980602     1.62293900     0.75018313     0.00368156     0.13602735
O       1.93371199     2.87524299     1.65179699    -0.55646381    -0.10738679    -0.06514741
