# total energy = -19961.73794074 eV

CRYSTAL
PRIMVEC
        7.60600008     0.00000000     0.00000000
        0.00000000     7.60600008     0.00000000
       -1.89786986    -1.89786986     4.85670466
PRIMCOORD
24 1
Ti      3.77208498     6.60018098     1.24319701     0.36178186    -0.89019466     0.12112857
Ti      3.77392302     2.78234402     1.19180300     0.54978588     0.70869862     1.29881921
Ti      0.04228999     6.70512302     1.27353400    -0.36327387    -0.12848990    -1.14524485
Ti      0.02280399     2.90739401     1.15686899    -0.60322216     0.30281564    -0.19811154
Ti      5.70758421     2.96575024     3.60960782    -0.80800469     0.23482922    -0.12083984
Ti      5.72799220    -0.89202478     3.64206084    -0.66497828    -0.35838852    -0.34912380
Ti      1.81702624     2.78406724     3.64654080     0.73893687     0.46873799     0.06927429
Ti      1.86357024    -1.01341777     3.70377280     0.87328503    -0.50981035    -0.85062280
O       3.76944602     4.64270898     0.73882802    -0.26644532     0.89686591     0.49694069
O       3.78509999     0.88041500     0.76175499    -0.14264820    -0.27741416     0.93161284
O       0.14521698     4.87397399     0.72619999    -0.57505366    -1.29138898     0.33992310
O       0.09434701     0.96322102     0.78398202    -0.41551794     1.06168191    -0.19597264
O       5.83356322     4.86735520     4.03137479    -0.13348144    -0.38270345     0.06510756
O       5.75802920     1.07879625     3.93063082    -0.40331702    -1.40099103     1.22381188
O       1.81538722     4.67710725     4.08938580    -0.13255533     0.18942147     0.02795202
O       1.93057223     0.88882923     4.11904983    -0.09493133    -0.14163698    -1.08998385
O       3.80510320     2.88455022     3.19552880    -0.84438479    -0.03838247     0.14122895
O       3.78570722    -1.15770277     3.23278383     0.19384428     0.87172976     0.07957619
O      -0.05365376     2.88685822     3.12898380     0.81983280    -0.02127691     0.23715350
O       0.01672221    -0.82425379     3.18796780    -0.05123902    -0.06696929     0.58060133
O       5.70360300     6.59450402     1.62872799    -0.09134053     0.24787398     0.02847703
O       5.65928203     2.90821301     1.62113800     0.60947020    -0.14615493    -0.79794988
O       1.90204200     6.50352099     1.68970000     0.43339996     0.58304157    -0.15778146
O       1.81924900     2.76610098     1.68126100     1.01005645     0.08810608    -0.73597650
