# total energy = -19959.37887637 eV

CRYSTAL
PRIMVEC
        7.60600008     0.00000000     0.00000000
        0.00000000     7.60600008     0.00000000
       -1.89786986    -1.89786986     4.85670466
PRIMCOORD
24 1
Ti      3.74028000     6.58761000     1.26373698     0.64007817    -2.37157461     0.19801333
Ti      3.73043000     2.73120301     1.17136797     0.81534082     2.02491753     1.34407193
Ti      0.09365099     6.73700902     1.30226198    -0.04116569     0.12178626    -0.21634453
Ti      0.02430199     2.96752701     1.05704399    -1.33767168     0.13831743     0.32598232
Ti      5.70172823     3.15613224     3.63442481    -0.41783501    -1.34115167    -1.50469009
Ti      5.74295125    -0.87487578     3.62577583    -0.87568489     0.90454605    -0.41766506
Ti      1.73548823     2.73444824     3.64212481     1.31131169     0.31860994     0.46217011
Ti      1.86504421    -1.12439476     3.77686879     1.48904338     0.01876700    -1.51522056
O       3.71151900     4.60328501     0.68140302    -0.65506256     0.64516253     0.99071584
O       3.74094401     0.79240398     0.84383102    -0.02594244     1.67285521     0.71584192
O       0.23888098     4.84861698     0.79691099    -1.00948927     0.15344786    -1.16357811
O       0.24536399     1.02923202     0.82223101    -1.53158230    -0.48861031    -0.85518857
O      -1.55369875     4.97034622     4.07848681    -0.67033801    -2.14062235     0.49244563
O       5.77277520     1.07148122     3.80268783    -0.74453622    -0.88190260     1.67988410
O       1.74128325     4.69380321     4.12494180    -0.20697902    -0.80909381    -0.04825011
O       2.02882721     0.89366623     4.08903283    -0.23671539    -1.48641262    -0.47123736
O       3.76033222     2.88580421     3.14954483     0.49213555     0.27604891     0.15107833
O       3.75090524     6.16495724     3.23887683     1.65697993     1.78536081     0.23697044
O      -0.03913779     2.90473722     3.17730181    -1.23693428    -0.02540739    -0.01606194
O       0.06590622    -0.82753675     3.31066184    -1.15233030     0.26777715    -1.48785553
O       5.65571997     6.51678000     1.43064303     1.65037450     0.65793680     1.69480755
O       5.67452000     3.16944898     1.55870302     0.43228488    -1.07411448     0.48277133
O       1.93837002     6.37139500     1.73310502    -1.30546089     1.19940079    -0.02261440
O       1.71064701     2.72666098     1.69032898     2.96017876     0.43395609    -1.05604682
