# total energy = -4986.15765400 eV

CRYSTAL
PRIMVEC
        3.23735689     0.00000000     0.00000000
        1.95094349     4.68226406     0.00000000
       -0.00001244    -0.00006739     5.18119694
PRIMCOORD
6 1
Ti      2.59414388     2.34109818     2.59059841     0.00000000     0.00000000     0.00000000
Ti      0.00000000     0.00000000     0.00000000     0.00000000     0.00000000     0.00000000
O       1.99888609     0.91249105     1.00973895    -0.07220946     0.38998996    -0.06251151
O       3.18940168     3.76970530     4.17145782     0.07220946    -0.38998996     0.06251151
O       0.59525246     1.42857992     3.60033850     0.07129055    -0.39009717    -0.06245726
O       1.35567857     3.25361663     1.58085833    -0.07129055     0.39009717     0.06245726
