# total energy = -19960.38455324 eV

CRYSTAL
PRIMVEC
        5.93400000     0.00000000     0.00000000
        0.00000000     9.29699974     0.00000000
        0.00000000     0.00000000     4.64899994
PRIMCOORD
24 1
Ti      4.43778901     7.01803902     2.43682202     0.76308339    -1.59682689    -0.45339750
Ti      4.49463201     2.38369199     2.42196299     0.03844778    -0.91400669    -1.05123294
Ti      1.47273802     6.96397700     2.23409898    -1.09320030    -0.80176437     0.32145692
Ti      1.56286399     2.29905798     2.26991201    -0.16424907     0.13136671     0.13623715
Ti      2.96882302     4.54961501     4.62982701    -1.75235066     1.57093510    -0.17313661
Ti      2.97223399     9.24405699     4.62111400     0.86458595     0.34135727     1.14823633
Ti      5.82409698     4.64890300     0.12426802     1.70072675     1.72653807    -0.81173922
Ti      0.04018699     0.01328499     4.54099302    -0.68949736     0.12129158     1.30749206
O       4.49583102     5.60179798     0.93176398    -0.72798782    -0.47505288    -0.36659214
O       4.44700500     0.99478401     0.81197000    -0.34045584    -0.99841012    -0.25588939
O       1.47277998     5.55463299     0.96518300     0.35186280    -0.23294460    -0.45735314
O       1.51269302     1.02273801     0.77892700    -0.27856885    -0.89861631     0.11152601
O       4.46228399     8.40069900     3.70944299    -0.27957338     0.96906148     1.20828189
O       4.44679301     3.81499501     3.68939299    -0.14386125    -0.74697928     0.01476328
O       1.39493298     8.25179599     3.75077898     0.68334240     1.39791599     1.06432140
O       1.49710599     3.73058102     3.84868799     0.21918405    -0.44675557    -1.08486427
O       3.03355002     6.11277301     3.37596300    -0.80403465    -0.21725367    -0.66222592
O       2.95293399     1.44614601     3.16573998    -0.18745586    -0.69132465     0.37662202
O       5.92966202     5.97823901     3.09310601     0.14861342     0.27211152     1.08276188
O       0.04763199     1.38714503     3.18501002    -0.35042426     0.39580374    -0.44471694
O       2.99649200     7.92238802     1.45195199    -0.58910732     0.42765792    -0.73378309
O       2.96968600     3.10922099     1.36578801     0.31443086     1.26635079     0.11044409
O       5.84302999     7.95113499     1.57060501     1.43323165     0.63534554    -1.55322894
O       5.77870998     3.30062297     1.36952501     0.88325757    -1.23580016     1.16601654
