# total energy = -19960.44033388 eV

CRYSTAL
PRIMVEC
        7.60600008     0.00000000     0.00000000
        0.00000000     7.60600008     0.00000000
       -1.89786986    -1.89786986     4.85670466
PRIMCOORD
24 1
Ti      3.82032398     6.53745199     1.19718098    -0.75557448     0.96733164     1.22266414
Ti      3.78256602     2.84883398     1.22713902     0.59929557    -0.00821005     0.01029830
Ti     -0.01301802     6.69789202     1.24011202     1.11222133     0.61458593    -1.06814052
Ti     -0.04239800     2.93231598     1.20001202     0.02838730    -1.39719840     0.48445669
Ti      5.69997020     2.87409325     3.68361580     0.81382799     0.22406967    -0.19969509
Ti      5.75897621    -0.94006576     3.61853081    -0.76334101    -0.35687157     0.66280236
Ti      1.92928924     2.85613123     3.64442181    -0.51499575    -0.58729469    -0.80548835
Ti      1.89497521    -1.00647179     3.73779382     0.43392370     0.48090754    -3.14172159
O       3.63865801     4.78157499     0.69106501     0.60598379    -0.60079196     1.54913831
O       3.71134601     0.88607698     0.64018599     0.19117882     0.02718248     3.38613306
O       0.03788502     4.79486601     0.79775698    -0.05955808    -0.81600931    -0.51799366
O      -0.03892501     0.99740101     0.86900102     0.45982989    -0.37270571    -1.32057512
O       5.75102924     4.69609921     3.85419683     0.24187379     1.22109731     1.28799255
O       5.74016920     0.87404921     3.92578980    -0.43479993     0.85319956     1.25672278
O       1.84537421     4.68984523     4.03612479    -0.00306090     0.36804147    -0.15826097
O       1.80426524     0.92846625     4.20678483     0.67887536     0.42003382    -1.62733330
O       3.86210321     3.02095423     3.23130282    -0.94977974    -1.11977806     0.11472472
O       3.84814320    -1.02091579     3.26731783    -1.17211032     0.04702961    -1.01611243
O      -0.10691180     2.63416921     3.24179482     2.56003963     0.84200472    -0.94863509
O      -0.01099080    -0.98676978     3.12554579     0.55235724    -0.06662811     1.23507563
O       5.75203299     6.65141200     1.54712102    -2.32882023    -0.14343907     0.18318371
O       5.78966299     2.92627097     1.55099899    -1.85396636     0.05481928    -0.19982287
O       1.81328803     6.69383302     1.59340101     2.35650382    -0.07111905     0.22232672
O       2.02319602     2.98425203     1.72531199    -1.79829218    -0.58025680    -0.61173997
