# total energy = -19075.53979243 eV

CRYSTAL
PRIMVEC
        7.60600008     0.00000000     0.00000000
        0.00000000     7.60600008     0.00000000
       -1.89786986    -1.89786986     4.85670466
PRIMCOORD
22 1
Ti      3.75249701     6.47562001     1.11030399    -0.07987135    -0.46027957     0.73146215
Ti      3.77466202     2.76932102     1.19088303    -0.10021187     1.02672929     0.63948142
Ti      0.03394402     6.71551299     1.15754798    -0.65773111    -0.87576563     0.08309577
Ti     -0.04219601     2.95214901     1.19559202    -0.45296272     0.83695121     0.19259164
Ti      5.74601624     2.88537325     3.56487980    -0.68915026     0.42919904     0.65893568
Ti      5.99186125    -0.84925577     3.72690081    -1.02817862    -0.53222241    -1.10162504
Ti      1.93872621     2.70041225     3.52866783    -0.05455420     1.32161822     1.23651905
Ti      1.93901223    -1.00506376     3.77349481    -1.04064616    -1.06566275     0.11290207
O       3.38379397     4.64615398     0.69349700     0.99326431     0.33669920     0.05499977
O       3.70258898     0.90450399     1.13656198     0.34191700    -0.67649734    -1.70572575
O       0.12215702     4.77293500     0.67345399    -0.55641753     0.34454543     0.64510082
O      -0.23657901     1.13663902     0.71588199     0.35755676    -1.62979899     1.20659396
O      -1.61122878     4.82864022     4.18258481    -0.34998769     1.15896272    -0.92481561
O       5.61533920     1.01738925     3.94584080     0.58233477    -0.05413871    -0.45438557
O       1.77120420     4.64694520     4.07719080     0.58416385     1.61368356     0.30270663
O       1.89498421     0.84020922     3.89291683     0.24423227     0.30055564     1.12546920
O       3.80031124     3.07494221     3.22416983    -0.55240840    -0.67633485     0.32315668
O      -0.07191180     3.04976523     3.11993080     0.66488778    -0.99154270    -0.14524887
O       5.60263402     6.40374102     1.86988200     0.49778607     0.60712484    -0.29217693
O       5.57424800     3.14064200     1.60919701     1.00590695    -0.46745295    -0.72275716
O       1.72989202     6.56748301     1.92609300     0.87475570     0.24336529    -0.64946887
O       1.87182000     2.89697001     1.70696700    -0.58468553    -0.78973880    -1.31681154
