# total energy = -39035.78900449 eV

CRYSTAL
PRIMVEC
        5.93200024     0.00000000     0.00000000
        0.00000000     9.29399984     0.00000000
        0.00000000     0.00000000     9.29399984
PRIMCOORD
46 1
Ti      4.42647800     6.86869700     6.92231900     1.12996915     0.80815125    -0.87647782
Ti      4.39941402     6.93729398     2.37283201     0.99376491     0.03395657     0.67874937
Ti      4.41682099     2.38537203     7.04159201     0.39353500    -0.06085135    -0.79719860
Ti      4.43228302     2.48842400     2.08726801    -0.14810974    -0.95312655     1.27228979
Ti      1.49788500     6.94609002     6.98779802    -1.19914239     0.67305489    -1.15666801
Ti      1.49746102     7.07230800     2.28994200    -0.78560343    -0.33258697     0.37379689
Ti      1.47705801     2.27313099     6.98940000    -0.39799586     1.10457101     0.64558496
Ti      1.46704502     2.10385603     2.59451499     0.62486957     0.02246785    -1.23040085
Ti      2.97753502     4.70200001     4.55242002     0.60341962    -0.77815572     1.07198201
Ti      2.95653102     4.83172998     9.11501902    -0.64728909    -1.04720428    -0.20790514
Ti      3.00488602     9.25578901     4.79703199     0.63750321     0.54245257    -0.85999165
Ti      2.99517800     9.26248299     0.02363602     0.01062920     0.78642542    -0.39752201
Ti      0.07186698     4.62163899     4.51479202    -0.51531971    -0.32820838     0.64852450
Ti      0.03392100     4.70424102     9.26879603     0.38400314    -0.73600195    -0.21966485
Ti      0.00832999     9.23815799     4.83399999    -0.72626955    -0.30907037     0.01378986
Ti      0.01536403     9.21139897     0.05589699    -0.13562574     1.09459204    -0.67885376
O       4.38759702     5.69523602     5.39950399     0.50228396    -0.38735638     0.47941476
O       4.37385598     5.55255602     0.75903401     0.73182519     0.43656191     1.43709602
O       4.39211598     0.76313397     5.83061999     0.33868820     0.30704125    -1.41758880
O       4.36601701     0.82309198     0.94340000     0.82802922     1.55545628     0.59327662
O       1.48546600     5.60990799     5.44877600    -0.21668906    -0.39543684     0.11306379
O       1.52312400     5.62233201     0.80776002    -0.31474120    -0.09669820     0.26536648
O       1.51400299     0.94104702     5.65176803    -0.67039354    -0.53304079    -1.27973159
O       1.51236800     0.94531801     0.99114401    -0.35261742    -0.80612162     0.26439384
O       4.46097200     8.42043298     8.46358802    -0.13576304    -0.81724961    -0.96777953
O       4.43232499     8.40517002     3.72518400     0.37538814     0.16073720     0.54490952
O       4.43389500     3.82603201     8.33940297    -0.05118940    -0.46477566     0.49369853
O       4.45039401     3.65144701     3.76671801     0.18249466     0.38497708    -1.04378394
O       1.45516198     8.26685399     8.34708202    -0.19227436     1.26831949     1.16767490
O       1.45096200     8.33043702     3.95325902    -0.12847859     0.11283342    -1.93516619
O       1.44026998     3.92449501     8.12626001     0.12865111    -0.08003667     1.81214272
O       1.56335698     3.75911902     3.67952902    -0.90875366    -0.98963546    -0.13492177
O       2.95351000     6.18248201     7.87816600     0.35438222    -0.42980916    -0.00340003
O       2.88802300     5.94003098     3.09970400     0.31829498     0.80584471    -0.15174322
O       2.92559701     1.50130099     7.98455698    -0.19319688    -0.50809285     0.31258224
O       3.12904302     1.43355001     3.19715400    -0.78103381     0.43699231     0.04421451
O       0.01958601     6.03705500     7.79167002    -1.00834384    -0.01256216     0.20265828
O       0.04795801     5.97100902     3.05303703    -0.21188623    -0.07154586     0.63074763
O       5.92211299     1.45362599     7.99476200     0.23055605     0.03128802    -0.12290598
O       2.90221399     7.89538199     6.06178102     0.48023520    -0.46576759     0.48906977
O       3.07523400     7.88480998     1.47856098    -1.48433929     0.21381610    -0.51289413
O       2.95806601     3.18837702     6.05289200     0.15964860     0.34333342    -0.14166192
O       5.80948100     7.89743599     6.01003600     0.72291220    -0.77197118     1.10059248
O       5.82834601     7.89328300     1.43890099     1.07588469    -0.15221913     0.14229159
O       5.84872600     3.20030197     6.02086402     0.27982766     0.18832129    -0.27285277
O       0.13108699     3.17199401     1.49527202    -0.28173953     0.21633116    -0.38879928
