# total energy = -19072.59507868 eV

CRYSTAL
PRIMVEC
        5.93400000     0.00000000     0.00000000
        0.00000000     9.29699974     0.00000000
        0.00000000     0.00000000     4.64899994
PRIMCOORD
22 1
Ti      4.51062703     6.91942700     2.43466002     0.06499263    -0.32905016    -0.17179089
Ti      4.32189702     2.39882800     2.19074201     3.93351342    -2.46975865     1.28554177
Ti      1.50593003     7.10626297     2.39074503    -0.50675511    -0.45754957     0.45973990
Ti      1.61476300     2.36200001     2.29308600    -2.41795270    -0.79052813    -0.09851263
Ti      2.93528397     4.56094803     4.51116398    -1.30325771     1.26193878    -0.36192070
Ti      3.03313499     9.06003899     0.11346597    -0.39944828     1.34856673    -0.41472269
Ti      5.72462002     4.62506700     4.60431198     0.81356393    -0.46592649    -0.24334961
Ti      5.93222800     9.26630302     0.04944003     0.29938039     0.48833906     0.51374980
O       4.47141801     5.63072598     0.88842500    -0.97396124     0.08917515     1.31560749
O       4.38794098     0.95175899     0.88729197     0.96572779    -0.16948667    -0.77054808
O       1.42939702     0.84963302     0.93051602     0.65882795     1.21064345    -0.16337310
O       4.52523999     8.10113197     3.98952100    -0.75192454     1.69161476    -0.69530626
O       4.31330800     3.89871799     3.56432703     0.92997993    -1.26068691    -0.78376509
O       1.56902198     8.32304801     3.68770401    -0.63273818     2.09471169     1.70004258
O       1.35252800     3.97713698     3.56087298     1.71150508    -1.03180234     0.33761142
O       2.91819398     6.16977397     3.35009602     0.24646270    -1.22770273    -0.28016319
O       3.00876500     1.34181501     3.14006901     0.12006028     0.72759675     0.40609998
O       0.10837502     6.22904902     3.50604498     0.04681029    -0.43017040    -1.75293353
O       3.00891798     8.03747698     1.63990199     0.67927491    -0.67541902    -0.74713329
O       3.01556403     3.13199599     1.40606798    -2.14431832     3.50937945    -3.26810190
O       0.11987002     8.10850198     1.38129598    -0.54817122    -2.71143652     2.14282065
O       0.15351998     3.21137300     1.12336398    -0.79157174    -0.40244824     1.59040710
