# total energy = -19960.78291638 eV

CRYSTAL
PRIMVEC
        7.60600008     0.00000000     0.00000000
        0.00000000     7.60600008     0.00000000
       -1.89786986    -1.89786986     4.85670466
PRIMCOORD
24 1
Ti      3.83221502     6.57973801     1.21069701     0.65916579    -0.32591779     0.31559017
Ti      3.84530898     2.71239499     1.16509400    -0.56101852     0.48487707     1.94656981
Ti     -0.00446398     6.72075502     1.16135298    -0.64763362    -0.59091403    -0.44646015
Ti     -0.02686802     2.88619098     1.22109201     0.34479072     0.41007594     0.00757267
Ti      5.67897425     2.86109221     3.61744981    -1.54565215     1.25529299     0.52819940
Ti      5.74688922    -0.78508779     3.66801682    -1.07301122    -1.27271094    -0.65130284
Ti      1.85504223     2.73057821     3.69432482     1.28308894     1.47448424    -1.14299848
Ti      1.89082122    -0.94938278     3.64719079     0.76346160    -1.24705312    -1.07089649
O       3.87675798     4.58855901     0.76298602    -0.43661179     1.04974736     0.34366046
O       3.91781002     0.83387698     0.74144199    -0.54054482     0.14712141    -0.01858163
O      -0.03674898     4.80899901     0.88151002     0.57384010    -0.81719536    -0.41821605
O      -0.08701902     0.97689698     0.75469402     0.78732839     0.83402787     0.09552372
O       5.48116821     4.79777622     4.06423781     1.30889845    -0.09132305    -0.06513070
O       5.43370922     1.03292722     4.09493681     1.09711455    -0.08255892     0.41420693
O       2.04668123     4.60666624     4.05061679    -1.05187212     1.05565138     0.02628851
O       1.97741224     0.83215022     4.07797583    -0.23561161     0.73566976    -0.24564252
O       3.83004121     2.90136022     3.26924282    -0.39835042    -0.69903282    -0.72456954
O       3.88628725    -0.78705480     3.14528082    -1.76083119    -0.66712798     0.39459429
O      -0.04979780     2.80746020     3.15404580     0.94608738     0.00522423     0.96975774
O      -0.05195976    -0.63058777     3.08204382     0.91888304    -0.59009308     2.13527703
O       5.69896201     6.65666001     1.69893198     0.00359826    -0.33145054    -1.02943898
O       5.69848300     2.71862701     1.61992401     0.11880609     0.30734901     0.26993251
O       1.89905400     6.75337800     1.72338901     0.43816679    -0.68693037    -1.15697731
O       1.97768302     2.78523598     1.67188202    -0.99209292    -0.35721352    -0.47695833
