# total energy = -19517.58583209 eV

CRYSTAL
PRIMVEC
        5.93400000     0.00000000     0.00000000
        0.00000000     9.29699974     0.00000000
        0.00000000     0.00000000     4.64899994
PRIMCOORD
23 1
Ti      4.52735601     6.89970202     2.27255900    -0.00466167     0.67119470     0.30613211
Ti      4.44982303     2.29501998     2.35177901    -0.01615090    -0.17976157     0.61652968
Ti      1.47634500     7.07341202     2.33627099     0.62666009    -0.13685396    -0.29927343
Ti      1.40754401     2.40318498     2.30669803     0.13326958    -0.78155214     0.29527691
Ti      2.95729600     4.58414202     0.09825499    -0.04073092     0.19146575    -0.04947627
Ti      2.99913699     0.01395102     4.57378798    -0.02140753    -0.47137389    -0.12110800
Ti      0.01565301     4.65287701     0.00845302     0.01615245     0.11546417    -0.36175255
Ti      0.01840299     9.28821900     0.10120197     0.01768560     0.51401102    -0.94833350
O       4.40569001     5.65849498     0.81687499    -0.23835266    -0.68562348    -0.32223031
O       4.39943498     0.92433999     0.82928700     0.41714956    -0.24778939     0.45424288
O       1.50530200     5.58922002     0.98400499     0.45530963    -0.58322926    -0.87546969
O       1.48853099     0.96004601     0.98778803    -0.33180819    -0.82999535    -0.82487782
O       4.46017701     8.29899701     3.55882200    -0.54631720     0.83711088     1.73895213
O       4.50508098     3.74651699     3.66957202    -0.73495397     0.67963332     0.21422362
O       1.46190602     8.40372801     3.71463802     0.15539882    -0.07724394     0.36947409
O       1.42427999     3.62164401     3.85610298     0.26388861     1.01767386    -0.87238951
O       2.89265700     1.56496499     3.28232302     0.35658669    -0.85082386    -0.24496323
O       0.06119199     6.01320900     3.23291300    -0.07471551    -0.00899372    -0.01290463
O       5.86269802     1.28106002     3.22460798     0.26069273     1.15159316    -0.53589240
O       2.99075699     7.84832702     1.33601999    -0.28743221    -0.30676332     0.74762823
O       3.00367500     3.30651499     1.27678601    -0.27869972    -1.49590977     1.94323920
O       0.04155899     7.73516500     1.47163198    -0.43894455     2.00765076    -1.86910065
O       5.84088597     3.29170702     1.38927301     0.31138128    -0.52988399     0.65207288
