# total energy = -39480.98708778 eV

CRYSTAL
PRIMVEC
        5.93188753     0.00000000     0.00000000
        0.00000000     9.29428401    -0.00002646
        0.00000000    -0.00002646     9.29428401
PRIMCOORD
47 1
Ti      4.44891576     6.97407548     6.94683782     0.00000000    -0.00635166     0.01030396
Ti      4.44891576     7.02901227     2.38185704     0.00000000     0.18866891     0.18866891
Ti      4.44891576     2.33004532     6.97720056     0.00000000     0.29930660     0.29930660
Ti      4.44891576     2.29970905     2.32694671     0.00000000     0.01030396    -0.00635166
Ti      1.48297199     6.94210845     6.97939858     0.00000000    -0.02557863     0.07315151
Ti      1.48297199     6.98927363     2.34211840     0.00000000    -0.01683508    -0.01683508
Ti      1.48297199     2.13705705     6.78421228     0.00000000     0.70832299     0.70832299
Ti      1.48297199     2.33226981     2.29497967     0.00000000     0.07315151    -0.02557863
Ti      2.96408867     4.65905604     4.63375368    -0.03352540    -0.18942815     0.16722821
Ti      3.08699338     4.73118254     0.08402731    -0.18915973    -0.02073930    -0.02073930
Ti      2.99103516    -0.02015140     4.62700383     0.12523128     0.00160026     0.00160026
Ti      2.96408867    -0.01337509     0.01192726    -0.03352540     0.16722821    -0.18942815
Ti      0.00185510     4.65905604     4.63375368     0.03352540    -0.18942815     0.16722821
Ti     -0.12104961     4.73118254     0.08402731     0.18915973    -0.02073930    -0.02073930
Ti     -0.02509140    -0.02015140     4.62700383    -0.12523128     0.00160026     0.00160026
Ti      0.00185510    -0.01337509     0.01192726     0.03352540     0.16722821    -0.18942815
O       4.44891576     5.55479799     5.55477463     0.00000000     0.06620619    -0.04360233
O       4.44891576     5.58143416     0.93427892     0.00000000     0.55116219     0.55116219
O       4.44891576     0.93177644     5.57893167     0.00000000    -0.09486500    -0.09486500
O       4.44891576     0.90764585     0.90766922     0.00000000    -0.04360233     0.06620619
O       1.48297199     5.55953969     5.55637445     0.00000000     0.06553024    -0.13324593
O       1.48297199     5.46740088     0.82024564     0.00000000    -0.13091779    -0.13091779
O       1.48297199     0.90427444     5.55142967     0.00000000    -0.88460791    -0.88460791
O       1.48297199     0.90924567     0.91241092     0.00000000    -0.13324593     0.06553024
O       4.44891576     8.38728609     8.37702865     0.00000000    -0.04143951    -0.01111180
O       4.44891576     8.38116463     3.73400940     0.00000000    -0.06945169    -0.06945169
O       4.44891576     3.74931529     8.39647052     0.00000000     0.08696194     0.08696194
O       4.44891576     3.72989987     3.74015731     0.00000000    -0.01111180    -0.04143951
O       1.48297199     8.38267410     8.37945938     0.00000000     0.01518211     0.01413567
O       1.48297199     8.37221044     3.72505521     0.00000000    -0.05886414    -0.05886414
O       1.48297199     3.73233061     3.73554533     0.00000000     0.01413567     0.01518211
O       2.95259038     5.99819926     7.89391744    -0.11200064     0.10153084    -0.20074718
O       2.96199678     6.05581621     3.22160846     0.09886384     0.01217032    -0.07678140
O       2.92672501     1.47919113     7.91770864    -0.00282076    -0.00448143    -0.01528161
O       2.96668067     1.41834997     3.23234645     0.03134536    -0.03300912    -0.02309186
O       0.01335338     5.99819926     7.89391744     0.11200064     0.10153084    -0.20074718
O       0.00394698     6.05581621     3.22160846    -0.09886384     0.01217032    -0.07678140
O       0.03921875     1.47919113     7.91770864     0.00282076    -0.00448143    -0.01528161
O      -0.00073691     1.41834997     3.23234645    -0.03134536    -0.03300912    -0.02309186
O       2.96668067     7.87947522     6.06547875     0.03134536    -0.02309186    -0.03300912
O       2.96199678     7.86876369     1.40866098     0.09886384    -0.07678140     0.01217032
O       2.92672501     3.27055341     6.12634636    -0.00282076    -0.01528161    -0.00448143
O       2.95259038     3.24678867     1.35107049    -0.11200064    -0.20074718     0.10153084
O      -0.00073691     7.87947522     6.06547875    -0.03134536    -0.02309186    -0.03300912
O       0.00394698     7.86876369     1.40866098    -0.09886384    -0.07678140     0.01217032
O       0.03921875     3.27055341     6.12634636     0.00282076    -0.01528161    -0.00448143
O       0.01335338     3.24678867     1.35107049     0.11200064    -0.20074718     0.10153084
