# total energy = -39035.29672924 eV

CRYSTAL
PRIMVEC
        7.60600008     0.00000000     0.00000000
        0.00000000     7.60600008     0.00000000
       -3.79573973    -3.79573973     9.71340985
PRIMCOORD
46 1
Ti      1.96834643     4.72960544     6.19006364     0.18706274     0.67057069    -0.51932138
Ti      3.66283999     6.84959799     1.32054902     0.92072755     0.36756402     0.56132319
Ti      2.00461746     0.65892347     6.08537465    -0.02935507    -0.68110939    -0.31698526
Ti      3.72972598     2.80817100     1.08432498     0.07693926     0.59506019     1.11981072
Ti     -1.85806558     4.66675543     6.07214162    -0.27243882     0.71633429     0.97455387
Ti     -0.18180900     6.66576202     1.31672201    -0.56803815     1.02206994     0.60788075
Ti     -1.77663155     0.95578947     5.98900062     0.07608411     0.07670529    -0.77566637
Ti      0.10704002     2.92004600     1.11795901    -1.63376054    -0.50240943     0.27982200
Ti      3.95049947     1.10493946     8.42883065    -0.18135694    -2.02784293    -0.13552084
Ti      5.66434498     2.86302397     3.43682298    -0.48797705    -1.44410845    -0.11504148
Ti      3.74592447    -2.86226953     8.52410663     1.80405274     1.84031302     0.64886363
Ti      5.62188697    -1.03147002     3.72063800    -0.72052442     1.63193917    -1.04541865
Ti      0.18168745     1.06162042     8.43121761    -0.89430174    -0.97972976    -0.15872866
Ti      1.87398503     2.67716602     3.60521798     0.05995686    -0.34574820    -0.13265869
Ti      0.04278345    -2.83547654     8.46753864    -1.47678538     0.83136266     0.76481606
Ti      1.80871599    -1.16068399     3.60500499     0.30705951     0.56215803     1.87145783
O       1.66576447    -1.13446956     5.80006662     0.15411558     0.79486764    -1.91504268
O       3.47164200     1.05281301     0.73382401    -0.04504703    -1.26937673    -0.27959780
O      -1.96344154     2.83316245     5.69221765     0.08419749     0.61975411    -0.43023776
O      -0.31372400     4.82407099     0.90755899     1.01744169    -0.09697151    -0.48550159
O      -1.60348554    -1.10317454     5.50633964    -0.36748971     1.53632007     1.90739673
O       0.12701302     0.89512798     0.85032699    -0.54677460     1.62492623    -1.10468851
O       3.67010543     2.90312646     8.92308363     0.04525580    -0.42335363    -0.61046265
O       5.70785198     4.76908201     3.85670100    -0.40028903    -2.46683582     0.60440384
O       3.96887245    -0.83533756     8.95684064     0.04634055     0.06363148     0.35422898
O       5.58036699     0.99825499     3.95919502     0.36625352    -0.19981953     1.71510925
O       0.02734545     2.82711644     9.10630363     0.62802355    -0.08556763    -0.73751042
O       2.06005899     4.40573198     4.20862298    -0.40817486     1.87675894     0.70012373
O      -0.05971453    -0.89422256     8.89373064     0.20294213     1.35933298    -0.38285180
O       2.01420499     0.91415301     4.19951102    -0.28652384    -0.41043718    -0.10268013
O       1.98921343     0.74483344     7.98524565     0.47935562     0.99812653     1.49696572
O       3.78476602     2.65435197     3.07370198    -0.46457126     0.63435875     0.69720347
O       1.89656745    -2.43815455     8.11515761     0.36991066    -1.69232027     0.61423035
O       3.70060498    -0.92205400     3.36430998    -0.55053638    -0.85023816    -0.48833855
O      -1.78331257     1.03905943     7.98137165    -0.41065366     0.29442665     0.30200909
O      -0.05083499     2.67588102     3.18741799    -0.47118363     0.19623078     0.07535366
O      -1.91293554    -2.68176256     8.18249663     0.34613618    -1.28809205    -1.54450287
O      -0.19124302    -0.82471301     3.30335702     2.70893098    -0.81895734    -0.90716266
O       3.84279047    -2.50826556     6.53131861     0.18643204    -1.64290262    -0.06256782
O       5.58486700     6.93990801     1.64334699    -0.56132628    -0.65379115    -0.31022968
O       3.90618347     0.78988044     6.45197965     0.23708460     0.50808283     0.28669893
O       5.52466198     2.68889698     1.43770500     1.92359288     0.97732630     0.46771829
O       0.06435647     4.64349846     6.52016864    -0.76151219    -1.08276419     0.18956159
O       1.81649600    -0.67048297     1.82492903    -0.50120821    -1.61035630    -0.79076133
O       0.18922945     1.07208146     6.40727862    -1.39534052     0.35785373    -0.12135509
O       1.79336403     3.15506002     1.82411102     1.20727248     0.41665771    -2.76669932
