# total energy = -19516.65128036 eV

CRYSTAL
PRIMVEC
        5.17600016     0.00000000     0.00000000
        0.00000000     5.50899976     0.00000000
        0.00000000     0.00000000     9.26300011
PRIMCOORD
23 1
Ti      1.94609601     3.17859502     3.31934399    -1.15056189     0.08368250     3.91865475
Ti      3.32048802     2.34746500     5.86322101    -0.50338053    -0.75973324    -2.77727941
Ti      4.38445000     2.05294102     1.55746702     1.20928308    -0.95096297    -1.08335760
Ti      0.91987897     3.33463298     7.83954400    -0.51193100    -0.03527632     1.21207299
Ti      1.99806503     0.27868998     1.30005700    -0.62229256    -0.12338034    -0.87120680
Ti      3.24648798     5.21687402     7.87298498    -0.72992360     1.22146317     1.13950769
Ti      0.58974402     0.58251800     5.97736603     0.35463573    -0.19103226    -4.02716126
Ti      4.43927298     4.86895998     3.33940399     1.49274731     0.98563251     3.42397586
O       1.57508000     2.01915703     4.91184599     1.28444108     0.94830059    -1.32025476
O       3.58038401     3.65291998     4.56058998    -0.79698365    -0.20791671    -1.05694336
O       0.26394599     2.40121803     0.07467802     0.79888164     0.72430497    -0.57230104
O       3.39871598     0.88089401     0.12076402    -0.11764113     0.41614734     0.65750383
O       1.65500100     4.70799601     8.99779298     0.28766027    -0.04478812     0.45820803
O       4.35810401     0.78868302     4.74987801    -1.86723428     0.69370523     0.42751111
O       0.92831200     4.88608299     4.32371898     1.24510808    -1.27790868     0.85313348
O       0.18172502     3.25144399     2.67350602    -0.17192742     0.04913174    -1.03512317
O       5.02091900     2.23627602     6.68248302    -0.19995322    -0.18105330     0.98452565
O       2.70813300     1.70876599     2.44029200    -0.25145630     0.24571682    -0.27468828
O       2.61925900     3.72777601     6.92416599    -1.16326623    -1.26921243     0.83077928
O       0.20640199     0.63309099     2.23935699     0.49394458     0.17532153    -2.06811028
O       4.98130400     4.81998802     7.29413900     0.38692623     0.14214915    -0.09101143
O       2.37312501     0.89794098     6.80034698     0.18626827    -0.25452002     1.16185650
O       2.90661902     4.40701401     2.09949698     0.34665477    -0.38977090     0.10970850
