# total energy = -39032.35512413 eV

CRYSTAL
PRIMVEC
        5.93200024     0.00000000     0.00000000
        0.00000000     9.29399984     0.00000000
        0.00000000     0.00000000     9.29399984
PRIMCOORD
46 1
Ti      4.44963199     6.95930500     6.77833300     0.04406410     1.03283283     1.94793507
Ti      4.42622802     6.80073302     2.40736500     0.11539141    -0.02541536     0.28828942
Ti      4.54784300     2.38378698     6.98198400    -0.94285422    -0.23375090    -0.13707302
Ti      4.17445501     2.71574802     1.97469598     1.00763807    -0.84317097     1.16093527
Ti      1.52257799     6.89515300     7.07192001    -1.58317124     0.33694088    -0.23420342
Ti      1.42296498     7.28238401     2.22080298     0.32772990    -2.78583810    -1.13700189
Ti      1.56160101     2.39213899     6.98694202     0.81711411    -0.09994524     0.48485419
Ti      1.25624203     1.83408501     2.80554802    -0.27587613     2.10435513    -1.52046741
Ti      2.93005898     4.57520501     4.68802402    -0.21804608     0.61607408    -1.07069800
Ti      3.03460700     4.90020901     9.19189599    -1.08346533    -0.26870661     0.94962831
Ti      2.95616102     9.25497497     4.59310798     1.83805354     0.05699341     1.08810566
Ti      2.92000800     9.20972101     9.26756299     0.53538050    -0.68152180    -1.20388016
Ti      0.02813598     4.65346699     4.65108803     0.61905168    -0.07971168    -0.46235085
Ti      0.01975498     4.53915698     0.05086298     1.21547713     0.33301095    -0.09345089
Ti      0.01996099     9.05777501     4.91168999    -1.22496759     1.95418928    -0.70868911
Ti      5.86238798     0.14832500     0.04414100    -0.89917579    -1.22914229    -1.28365381
O       4.57610001     5.56833598     5.61855199    -0.89234642    -1.02724634    -1.23310025
O       4.62687801     5.73825300     0.68264299    -0.53035167    -0.67333977     2.14356652
O       4.46388797     0.66430801     5.74224998     1.02110089     0.84975505    -1.16832796
O       4.30326702     1.05276702     0.72007498     0.44331774     0.27595558     0.90020011
O       1.57681797     5.36627198     5.66359900    -0.64842629     1.43122387     0.23600679
O       1.63967000     5.75836898     0.73380702    -1.18766010    -1.24424238     0.75288382
O       1.59296799     0.69909601     5.65105702    -1.15136408     1.88217728    -0.54826070
O       1.36037199     0.77023701     1.07690999     0.96540280     0.55686747     0.24681443
O       4.54470302     8.39237298     8.19145401    -0.82140914     1.34280309     1.31384526
O       4.57692002     8.27816097     3.77779999    -0.34425721     0.06979236    -0.93777937
O       4.46597399     3.85185998     8.29816297     0.80164070    -0.53630378     0.55839368
O       4.44299198     3.95748598     3.59549800     0.51915323    -1.06625950    -0.53579470
O       1.48442500     8.46431500     8.23353599     0.07608334     0.70977977     0.77289807
O       1.59416800     8.29859198     3.70378899    -0.84608840     2.06588293     0.00988127
O       1.63017899     3.75245801     8.53911198    -0.54184245    -0.42840174    -0.72847299
O       1.50261399     3.52948600     3.94654699    -0.92862933    -0.47235913    -1.26119033
O       2.97708099     6.23313602     7.92710701     1.40297824    -0.08983438    -1.29006512
O       2.71485101     5.93444398     3.30510098     2.57394981     1.46694345    -1.47180053
O       3.02969200     1.64190799     7.87074402    -0.33735971    -1.40139238     0.66060072
O       2.98626099     1.54431898     3.20069198     0.87650199    -0.63951484    -0.10633264
O       5.88375198     6.09983902     7.83353900     0.89129047    -0.20285343    -0.19157374
O       0.21038299     6.13740103     3.14795502    -2.16319382    -0.71998011     0.14480767
O       0.07101998     1.52046599     7.79267598     0.20320927    -0.59733253     1.21370564
O       2.82867000     7.89231397     5.83305600     1.04666512    -2.19320889     1.76945519
O       3.01183698     7.75620001     1.18691700     0.76528760     1.05065624     1.20061358
O       3.04220000     3.21265900     6.04676498     0.39739962    -0.05823217    -0.46482066
O       0.10082298     7.68262199     5.99083502     0.11558964    -0.27919722    -0.06985921
O       5.89250801     7.92205802     1.30755798    -0.93516687     0.33233860     0.40202247
O       0.09437998     3.37824798     6.11386201    -0.73061703    -0.85666078    -0.26276298
O       0.01990199     3.10854603     1.52412197    -0.33320198     0.26499033    -0.12383363
