# total energy = -19519.25198954 eV

CRYSTAL
PRIMVEC
        7.60600008     0.00000000     0.00000000
        0.00000000     7.60600008     0.00000000
       -1.89786986    -1.89786986     4.85670466
PRIMCOORD
23 1
Ti      3.82128603     6.69668597     1.17325899    -0.18383472     0.51031146     0.53484648
Ti      3.77221500     2.91427098     1.34239002    -0.03060797    -0.80844332     0.74111510
Ti      0.00105899     6.66209800     1.13919098     0.39101274    -0.43801433    -0.40510008
Ti     -0.08634998     2.76584401     1.11998402     0.90256964     0.47494849     1.04749250
Ti      5.71696325     2.82779622     3.69023782    -1.14085803     0.44479895    -0.23848688
Ti      5.75741223    -0.95796979     3.55266084    -1.59922727    -0.32156799     0.47235579
Ti      1.89410625     2.82692821     3.75605879     1.21664852     0.43135208    -1.56992311
Ti      1.83011422    -0.90315380     3.62757683     1.58510831    -0.46137409     0.12435839
O       3.85956200     4.75013699     0.81636100    -0.49425877    -0.27703133     0.88356610
O       3.82064001     0.96791297     0.76901599    -0.30766346     0.44590582     0.00264952
O       0.01796499     4.76155002     0.75387300     0.19220983     0.27967134     0.35407806
O       0.04753800     0.91314498     0.72773000    -0.04236948    -0.39266288     0.04565612
O       5.73577624     4.72872521     3.97247879     0.45747784     0.03342333     0.19269191
O       5.62846724     0.93874721     4.15195280     0.63754795    -0.26260640    -2.47716214
O       2.03655124     4.73404323     4.05817582    -0.89611180     0.51499961    -0.04244404
O       1.86715224     0.98348222     4.09134280    -0.53340872    -0.76018550    -0.21939283
O       3.83142623     2.83139124     3.32023682    -0.64205432    -0.06179700    -1.08957273
O       3.88215120    -1.01908976     3.18238483    -0.65646664     0.37720874    -0.10707466
O       0.01229025    -1.06172377     3.21064480     0.34892762     0.39028923    -0.37627672
O       5.72199699     6.73973401     1.54556900     0.75489931    -0.11619899     0.45335430
O       5.73858098     2.78492302     1.60049897    -0.46201327     0.08739800     0.74600997
O       1.92371001     6.71109701     1.58207699    -0.31001294    -0.09660975     0.50187078
O       1.71055498     2.84211602     1.74814699     0.81248484     0.00618505     0.42538815
