# total energy = -19944.85268591 eV

CRYSTAL
PRIMVEC
        5.59495328     0.00000000     0.00000000
        2.29030400     5.49665558     0.00000000
        0.00000000     0.00000000    10.22840275
PRIMCOORD
24 1
Ti      3.38513354     3.25731311     3.79466447     1.24839420    -3.12505724     1.01898692
Ti      4.50012383     2.23934263     6.43373840    -1.24839420     3.12505724    -1.01898692
Ti      5.75835861     2.23934449     1.31949607    -2.91045952    -0.50336974     0.83858772
Ti      2.12689880     3.25731146     8.90890684     2.91045952     0.50336974    -0.83858772
Ti      2.23998165     0.50898530     1.31953708     1.24839420    -3.12505724    -1.01898692
Ti      5.64527575     4.98767060     8.90886584    -1.24839420     3.12505724     1.01898692
Ti      0.98174678     0.50898327     6.43369734     2.91045952     0.50336974     0.83858772
Ti      6.90351062     4.98767263     3.79470547    -2.91045952    -0.50336974    -0.83858772
O       2.57729300     1.93546593     5.21947565     1.25059147     1.85858637    -1.03238186
O       5.30796432     3.56118982     5.00892721    -1.25059147    -1.85858637     1.03238186
O       1.83313556     1.93548814     0.10530714     0.39238006    -0.82184315     0.98324703
O       6.05212189     3.56116770    10.12309538    -0.39238006     0.82184315    -0.98324703
O       4.16281240     0.81286189     0.10527394    -1.25059147    -1.85858637    -1.03238186
O       3.72244497     4.68379384    10.12312859     1.25059147     1.85858637     1.03238186
O       4.90696991     0.81283973     5.21950880    -0.39238006     0.82184315     0.98324703
O       2.97828736     4.68381608     5.00889401     0.39238006    -0.82184315    -0.98324703
O       1.59637034     3.34337767     2.76294678     0.49040726     1.47021544     1.37425181
O       6.28888697     2.15327807     7.46545608    -0.49040726    -1.47021544    -1.37425181
O       3.89795529     2.15322692     2.35128719     1.36566458     0.89473729     0.08209484
O       3.98730202     3.34342883     7.87711551    -1.36566458    -0.89473729    -0.08209484
O       0.45121842     0.59504970     2.35125449     0.49040726     1.47021544    -1.37425181
O       7.43403895     4.90160604     7.87714815    -0.49040726    -1.47021544     1.37425181
O       2.84215011     0.59510090     7.46548867    -1.36566458    -0.89473729     0.08209484
O       5.04310720     4.90155484     2.76291413     1.36566458     0.89473729    -0.08209484
