# total energy = -19912.77986913 eV

CRYSTAL
PRIMVEC
        6.45541025     0.00000000     0.00000000
        3.23320804     6.06219944     0.00000000
        0.00000000     0.00000000    11.95603788
PRIMCOORD
24 1
Ti      4.25577185     3.59245378     4.43560480     0.16428147    -2.43996649     0.39430016
Ti      5.43284661     2.46974582     7.52043321    -0.16428147     2.43996649    -0.39430016
Ti      6.88458765     2.46974798     1.54236644    -0.93246824    -1.41056145     0.62701465
Ti      2.80403101     3.59245190    10.41367163     0.93246824     1.41056145    -0.62701465
Ti      2.63916808     0.56135426     1.54241440     0.16428147    -2.43996649    -0.39430016
Ti      7.04945051     5.50084557    10.41362374    -0.16428147     2.43996649     0.39430016
Ti      1.18742693     0.56135193     7.52038525     0.93246824     1.41056145     0.62701465
Ti      8.50119164     5.50084784     4.43565269    -0.93246824    -1.41056145    -0.62701465
O       3.18164568     2.13460352     6.10107464     1.77665377     2.01325500    -0.97619347
O       6.50697286     3.92759612     5.85496337    -1.77665377    -2.01325500     0.97619347
O       2.32304538     2.13462793     0.12309412     0.39398185    -1.31766669     1.83798360
O       7.36557324     3.92757176    11.83294351    -0.39398185     1.31766669    -1.83798360
O       4.89036896     0.89649637     0.12305531    -1.77665377    -2.01325500    -0.97619347
O       4.79824956     5.16570321    11.83298231     1.77665377     2.01325500     0.97619347
O       5.74896935     0.89647201     6.10111338    -0.39398185     1.31766669     1.83798360
O       3.93964913     5.16572765     5.85492457     0.39398185    -1.31766669    -1.83798360
O       2.20116037     3.68737331     3.22962411     0.66704957     3.22952608     2.99849052
O       7.48745817     2.37482634     8.72641384    -0.66704957    -3.22952608    -2.99849052
O       4.72881558     2.37476972     2.74843286     0.61084934     2.12006586     1.97005633
O       4.95980296     3.68742993     9.20760489    -0.61084934    -2.12006586    -1.97005633
O       0.58455648     0.65627356     2.74839470     0.66704957     3.22952608    -2.99849052
O       9.10406205     5.40592602     9.20764305    -0.66704957    -3.22952608     2.99849052
O       3.34319906     0.65633017     8.72645193    -0.61084934    -2.12006586     1.97005633
O       6.34541946     5.40586941     3.22958595     0.61084934     2.12006586    -1.97005633
