# total energy = -19919.03329340 eV

CRYSTAL
PRIMVEC
        6.37192296     0.00000000     0.00000000
        1.34293479     6.64735599     0.00000000
        0.00000000     0.00000000    11.46236063
PRIMCOORD
24 1
Ti      3.10533741     3.93921701     4.25245418    -0.19090962    -1.72319486     0.72217789
Ti      4.60952003     2.70813915     7.20990690     0.19090962     1.72319486    -0.72217789
Ti      6.04248506     2.70814153     1.47868056     0.12784892    -0.17195004    -0.31849809
Ti      1.67237241     3.93921488     9.98368065    -0.12784892     0.17195004     0.31849809
Ti      2.43387017     0.61553926     1.47872652    -0.19090962    -1.72319486    -0.72217789
Ti      5.28098729     6.03181709     9.98363469     0.19090962     1.72319486     0.72217789
Ti      1.00090506     0.61553669     7.20986094    -0.12784892     0.17195004    -0.31849809
Ti      6.71395240     6.03181966     4.25250014     0.12784892    -0.17195004     0.31849809
O       2.48962390     2.34064708     5.84915507     1.75617878     1.90873962    -0.50766862
O       5.22523354     4.30670907     5.61320601    -1.75617878    -1.90873962     0.50766862
O       1.64212042     2.34067385     0.11801144    -0.91455999     0.40003758     0.74261354
O       6.07273709     4.30668236    11.34434931     0.91455999    -0.40003758    -0.74261354
O       4.55376628     0.98303113     0.11797423    -1.75617878    -1.90873962    -0.50766862
O       3.16109116     5.66432502    11.34438652     1.75617878     1.90873962     0.50766862
O       5.40126983     0.98300442     5.84919227     0.91455999    -0.40003758     0.74261354
O       2.31358755     5.66435180     5.61316881    -0.91455999     0.40003758    -0.74261354
O       1.04835570     4.04329865     3.09626968     0.48829252     1.21496497     1.42742481
O       6.66650175     2.60405750     8.36609140    -0.48829252    -1.21496497    -1.42742481
O       3.94355387     2.60399541     2.63494732     0.62239900     1.43454857     0.61716243
O       3.77130357     4.04336074     8.82741356    -0.62239900    -1.43454857    -0.61716243
O       0.37688844     0.71962071     2.63491070     0.48829252     1.21496497    -1.42742481
O       7.33796901     5.92773551     8.82745019    -0.48829252    -1.21496497     1.42742481
O       3.09983630     0.71968273     8.36612796    -0.62239900    -1.43454857     0.61716243
O       4.61502114     5.92767342     3.09623305     0.62239900     1.43454857    -0.61716243
