# total energy = -19515.16807927 eV

CRYSTAL
PRIMVEC
        5.93400000     0.00000000     0.00000000
        0.00000000     9.29699974     0.00000000
        0.00000000     0.00000000     4.64899994
PRIMCOORD
23 1
Ti      4.46901798     7.00842900     2.16637001     1.74321348    -1.09151854     0.11960339
Ti      4.54234999     2.36315701     2.34799602     1.16205704     1.00823585     1.14787020
Ti      1.37115101     6.95357698     2.25395800    -0.70656692     0.23572808     1.36815829
Ti      1.53915098     2.33811703     2.33627200    -0.58450530    -1.17279269    -0.93794778
Ti      2.83766501     4.64215303     0.15327698     3.95253085    -1.61682494    -0.29002569
Ti      2.90040500     0.28220298     4.54887299    -0.77738001    -3.11278022     3.25160081
Ti      0.06701702     4.52083999     0.10255699    -4.25788083    -0.80610053    -2.94144004
Ti      5.81861999     9.16387801     4.49585002     1.96730011     1.25734730     0.23062907
O       4.47238100     5.66738701     0.81676402    -0.72102964    -0.08250776     0.02513434
O       4.40946098     1.21269000     0.94695898     0.21783602    -2.77062282    -1.00885780
O       1.33637602     5.53026401     0.83797001     2.18504049     1.83296943     1.00487336
O       1.46337502     0.80390200     0.93348603     0.18720183     1.27289323     0.90085112
O       4.32891502     8.38960300     3.78062500     0.29299017    -0.65546340    -0.30453186
O       4.40987797     3.70889799     3.80318001    -0.14200928     0.31707370     0.18508659
O       1.50415299     8.32189298     3.83313700    -0.27120778    -0.70773986    -1.22879211
O       1.49374498     3.47796699     3.70027398     0.77466544     2.68053571     2.71542765
O       3.14572898     1.44807402     3.39528299    -0.66434271     2.44822976    -3.60520965
O       0.02682098     5.80707599     3.22098598     0.69003009     2.11421660    -1.11925716
O       0.19511702     1.28653298     3.32480701    -0.74542273     0.68173031    -1.25221075
O       2.97204602     7.63779898     1.50918801    -1.27615801     0.52604353     0.23557433
O       3.26991402     3.47178901     1.45786602    -2.17685667    -0.61264603     0.40295269
O       0.07869998     7.82770101     1.32541502    -1.04041631     0.00563560     1.13958379
O       0.08780897     3.46732503     1.62088198     0.19091039    -1.75164284    -0.03907256
