# total energy = -19072.78522471 eV

CRYSTAL
PRIMVEC
        7.60600008     0.00000000     0.00000000
        0.00000000     7.60600008     0.00000000
       -1.89786986    -1.89786986     4.85670466
PRIMCOORD
22 1
Ti      3.99981799     6.58182599     1.29454398    -0.28974286     0.74667537    -0.21944759
Ti      3.55546601     2.71497500     1.16000199     1.77619380     0.35630721     0.45348646
Ti     -0.00581100     6.80682898     0.98110801     0.03823566    -0.76223673     0.44770353
Ti     -0.17607801     2.89800698     1.03806701    -1.54847496    -0.27064933    -0.12121985
Ti      5.60180824     2.98047021     3.49253482    -0.77377841    -0.64957069    -0.24615031
Ti     -1.08119379    -0.69777778     3.89768684    -2.92979371    -1.24840552    -0.73007787
Ti      1.77715422     2.71497621     3.74618879     0.99849008     0.29190979     1.12787704
Ti      1.75140821    -1.07384378     3.84016781     0.73119296     2.09656006    -1.46282069
O       3.84967501     4.72922602     0.90938301    -0.60934550    -0.18832721    -1.00242002
O       4.07650599     0.82837502     0.99896102    -1.37087929     0.01452005    -0.32169578
O       7.32684802     4.82805199     0.65218900     0.67443660    -0.56273190    -0.32307903
O       7.03410601     1.01090000     0.52996901     2.54994007     0.15363607     1.19900792
O       5.34319324     4.93787923     3.96395481     1.93322038    -1.48915702    -0.80658287
O       5.62877025     0.88889025     3.91413282    -0.03210332     2.05626237     0.22566324
O       2.17847822     4.83349923     4.20991380    -0.53515012    -2.73299677    -0.16422105
O       2.15995024     0.92983121     4.07535879    -1.18319820    -1.21815699    -0.01731047
O       3.56741620     2.79289920     3.07759381    -0.13335751     0.47856989     0.37786437
O      -0.04759679     2.59457320     3.24989181    -0.00363426     1.46397151    -0.85521248
O       6.06434700     6.64268698     2.05642799    -0.74659438     0.20544253     0.31758047
O       5.45260201     2.66356998     1.57423601     2.66236546     1.86375095     1.39278690
O       1.92367599     6.72217798     1.84156302     0.04978995    -0.28070929     0.27109619
O       1.72627001     2.68250299     1.11615097    -1.25781319    -0.32466463     0.45717188
