# total energy = -4984.72774208 eV

CRYSTAL
PRIMVEC
        4.10532701     0.00000000     0.00000000
        0.00000000     3.09709713     0.00000000
        0.00000000    -0.00008188     5.42993077
PRIMCOORD
6 1
Ti      2.05266345     1.54850746     2.71496544     0.00000000     0.00000000     0.00000000
Ti      0.00000000     0.00000000     0.00000000     0.00000000     0.00000000     0.00000000
O       2.05266345     0.60356260     1.05821356     0.00000000    -0.49711681     1.36938548
O       2.05266345     2.49345233     4.37171732     0.00000000     0.49711681    -1.36938548
O       0.00000000     0.94491231     3.77318012    -0.00000000     0.49709367     1.36872830
O       0.00000000     2.15210261     1.65675076    -0.00000000    -0.49709367    -1.36872830
