# total energy = -39034.19710176 eV

CRYSTAL
PRIMVEC
        5.93200024     0.00000000     0.00000000
        0.00000000     9.29399984     0.00000000
        0.00000000     0.00000000     9.29399984
PRIMCOORD
46 1
Ti      4.46161601     7.11639799     6.89159497    -0.27712183     0.19656708     0.53902529
Ti      4.48928197     6.81730002     2.38727802     0.11853844     0.51510323    -0.00718341
Ti      4.48899601     2.33495900     7.19743101    -0.67294665    -1.62192961    -1.55093448
Ti      4.24978201     2.64659201     1.96151200    -0.96310501    -1.60399359     1.96923487
Ti      1.43914399     6.85179698     7.02023299     0.74094824    -0.36282547     0.48896692
Ti      1.59296301     7.03279100     2.21517201    -0.40221042     0.03575455    -0.71406837
Ti      1.47671600     2.47155299     6.81147701     0.16921105    -0.72611400     0.13229899
Ti      1.25447299     1.95144599     2.81357802     0.60161394     1.15083726    -1.04328797
Ti      3.04931903     4.60652199     4.66637701     0.05044429    -0.45799643    -0.42221335
Ti      2.96416398     4.80641002     9.04664599    -1.71607701    -0.07667084     0.79645889
Ti      2.91534399     9.25297500     4.56694202     1.44701894     0.64782722     1.40527398
Ti      2.90247202     9.28968101     0.00599600     0.82628139     0.42129315    -0.64961105
Ti      0.06045300     4.86317502     4.57578700    -0.31581180    -1.36494081     0.60523328
Ti      5.92923201     4.53876100     0.06262299     1.37783464     0.75026129    -0.30673838
Ti      5.87412100     9.07545397     4.81321100    -1.03648252     1.65440960     0.06847107
Ti      0.01292298     0.04354700     0.02527700    -0.70017259     0.11629721    -0.16221790
O       4.43848800     5.78127500     5.45442799     0.74295576    -1.57785163    -1.06320914
O       4.41705298     5.40852101     0.85544201     0.27218994     0.32243188     1.71476061
O       4.59066598     0.77040799     5.68395899    -0.63901347     0.52372774    -0.44299867
O       4.50282399     0.88275603     0.84165499    -0.50983015     1.30210868     1.10348446
O       1.54780499     5.50768200     5.56409801    -0.06340831     0.19755901     0.21179162
O       1.51214500     5.58599002     0.85282100    -0.22207963    -0.52876813    -0.54878340
O       1.43335299     0.82253200     5.56328901     0.61698246     1.26172666    -0.21232872
O       1.55065598     0.88967698     1.07325200    -0.74949819    -0.58258700    -0.34737442
O       4.41455500     8.60245402     8.18721202     0.80194306    -0.74224896     0.61268511
O       4.48260900     8.22029401     3.80931101    -0.52151736     0.41406938     0.01292314
O       4.37000098     3.77342999     8.36309302     0.76026649    -0.87623151     0.48264098
O       4.50157201     3.78829003     3.70241398    -0.04289553     0.25492420    -0.45560762
O       1.57940200     8.21939002     8.40759402    -0.75211249     1.00302011     0.79233947
O       1.45932798     8.60081098     3.73233599     0.01549039    -1.14749636    -2.37553282
O       1.43831102     3.87916299     8.18973000     0.56467026     0.30089169     1.53219628
O       1.64055499     3.58797601     3.81360100    -1.33838131     0.07418895    -0.37287463
O       3.16617798     6.11718598     7.88809998    -0.99619692     0.41375236    -0.60915704
O       2.77939502     6.01137498     3.22370902     1.38589120     0.33059514    -0.10086390
O       2.83955301     1.55255398     7.96723902     1.02319582    -0.45305657     0.23269778
O       3.03680901     1.53841198     3.13126699     0.77516578    -0.80930130     0.48097773
O       5.82211002     5.97618601     7.80445902     0.51824923     0.58587749     0.37079924
O       0.25509503     5.99022302     3.06892901    -1.93438175    -0.86786385     1.51566510
O       0.09032003     1.55698198     8.05403499    -0.20716569    -0.23117106    -0.61547939
O       2.91615099     7.77516001     6.00866300    -0.50972319     0.92278855    -0.34960742
O       3.11659402     7.85348501     1.41853799    -0.13834983    -0.09042316    -0.08088668
O       3.04819701     3.08076798     6.01031001     0.41180989     1.08864431    -0.20144961
O       0.14532398     7.79443402     6.05345399     0.03282169    -0.57107102     0.58814829
O       5.80747002     7.86311498     1.61666698     0.92169480     0.74203299    -1.88504509
O       0.03891998     3.41757199     6.10260000    -0.91088794    -1.15161270    -0.05666354
O       0.01550098     3.06763703     1.62380002     1.44415190     0.61746351    -1.08195635
