# total energy = -19072.42951707 eV

CRYSTAL
PRIMVEC
        5.93400000     0.00000000     0.00000000
        0.00000000     9.29699974     0.00000000
        0.00000000     0.00000000     4.64899994
PRIMCOORD
22 1
Ti      4.45718801     6.91846702     2.47764302    -2.35366455    -2.30169766     0.86379328
Ti      4.39915700     2.32396302     2.20122501     0.34342032    -0.03040691    -0.06092977
Ti      1.47077599     7.25926002     2.55615398     1.73420433    -0.59838412     1.66268109
Ti      1.59808100     2.41059198     1.99904602    -0.55966303     0.56890152     0.50653888
Ti      2.99022501     4.62916501     4.43555799     0.23628473     0.95056650     1.05839038
Ti      3.01170500     9.27154198     0.07856499     0.68095513    -0.30327561    -0.14241063
Ti      5.80799200     4.47191099     4.29164200    -0.09170023    -0.48509201     0.53062601
Ti      0.03171899     9.07276200     0.40401402    -0.89424030     0.41970961    -0.61942346
O       4.34265601     5.43228800     0.87844302     0.07393776     0.17320500     0.71857398
O       4.44918600     0.61013698     1.10008103     0.78434848     2.66922850     0.97166395
O       1.53399198     0.60398201     1.25291398    -0.73662467     1.44018469    -0.37079512
O       4.48681098     8.24823701     3.99744702     0.12485847     1.37557978    -0.30750971
O       4.23213099     4.17606000     3.27752100     1.50345622    -2.43753886    -1.33446911
O       1.44667598     8.54757998     3.87065202    -0.38586951    -0.03991073    -0.66255553
O       1.49930801     4.04579201     3.28606398    -0.21337747    -0.51606148     0.91916612
O       2.96887202     6.35086600     3.58262899    -1.89033308    -0.62868792    -0.54328021
O       2.93532297     1.64988799     3.13429701     0.70711971    -1.00713516     1.94113553
O       0.04774698     6.23948800     3.49666700     0.62387121    -1.10992842     0.00759633
O       2.99846202     7.95542402     1.72093802    -0.05313521    -0.57430778    -1.39787717
O       3.10709301     2.85238100     0.96080099    -0.58508739     1.83949644    -0.92655367
O       5.82852302     7.81134800     1.73218902     1.27475959     0.90725677    -1.97508747
O       0.07318902     3.26278500     1.19498701    -0.32352075    -0.31170138    -0.83927317
