# total energy = -19909.50215824 eV

CRYSTAL
PRIMVEC
        8.10781617     0.00000000     0.00000000
        0.00002853     4.64647528     0.00000000
        0.00000000     0.00000000    12.26644820
PRIMCOORD
24 1
Ti      2.93871041     2.75349710     4.55076496     0.42842874    -0.41026646     2.51589582
Ti      5.16913448     1.89297857     7.71568375    -0.42842874     0.41026646    -2.51589582
Ti      6.99247955     1.89298021     1.58241042     0.42769906     0.41011707    -2.51658154
Ti      1.11536535     2.75349558    10.68403842    -0.42769906    -0.41011707     2.51658154
Ti      2.93869627     0.43025952     1.58245959     0.42842874    -0.41026646    -2.51589582
Ti      5.16914862     4.21621627    10.68398925    -0.42842874     0.41026646     2.51589582
Ti      1.11535121     0.43025768     7.71563459    -0.42769906    -0.41011707    -2.51658154
Ti      6.99249369     4.21621805     4.55081412     0.42769906     0.41011707     2.51658154
O       2.56618514     1.63610301     6.25947483     0.94820031     1.31750060    -2.03395496
O       5.54165976     3.01037259     6.00697389    -0.94820031    -1.31750060     2.03395496
O       1.48779058     1.63612173     0.12628994    -0.94825277     1.31842080    -2.03562540
O       6.62005438     3.01035393    12.14015839     0.94825277    -1.31842080     2.03562540
O       5.54164562     0.68713495     0.12625015    -0.94820031    -1.31750060    -2.03395496
O       2.56619927     3.95934072    12.14019818     0.94820031     1.31750060     2.03395496
O       6.62004024     0.68711623     6.25951462     0.94825277    -1.31842080    -2.03562540
O       1.48780453     3.95935944     6.00693403    -0.94825277     1.31842080     2.03562540
O       0.29459305     2.82624970     3.31347379    -2.26932540     0.75148051     0.28388795
O       7.81325184     1.82022597     8.95297492     2.26932540    -0.75148051    -0.28388795
O       4.34851115     1.82018252     2.81978952    -2.27000417    -0.75151214    -0.28414943
O       3.75933375     2.82629314     9.44665893     2.27000417     0.75151214     0.28414943
O       0.29457892     0.50301199     2.81975037    -2.26932540     0.75148051    -0.28388795
O       7.81326598     4.14346367     9.44669808     2.26932540    -0.75148051     0.28388795
O       3.75931961     0.50305544     8.95301401     2.27000417     0.75151214    -0.28414943
O       4.34852528     4.14342023     3.31343464    -2.27000417    -0.75151214     0.28414943
