# total energy = -19070.75679595 eV

CRYSTAL
PRIMVEC
        5.93400000     0.00000000     0.00000000
        0.00000000     9.29699974     0.00000000
        0.00000000     0.00000000     4.64899994
PRIMCOORD
22 1
Ti      4.36437598     7.04437199     2.19684099    -2.74116671    -2.52003633     1.83739405
Ti      4.53615501     2.53319499     2.13119502    -0.57480324    -1.34494456    -0.55329286
Ti      1.35974201     7.06757398     2.53183501     2.13400767    -0.67331663     1.82142338
Ti      1.71142601     2.35589601     2.24376700    -0.86020968    -0.38370258    -0.64397056
Ti      3.03736698     4.52592999     4.35349599     0.58071086     1.97991215     1.33125420
Ti      2.83586702     0.06142002     0.05657402     3.32907204     0.79123158     0.75447662
Ti      5.85332402     4.59578101     4.55315499     1.21007575     1.13505299     1.09674020
Ti      5.92946802     9.09812599     0.14551200    -3.01075392     0.31265963     0.61037755
O       4.41264801     5.27283901     1.05265801     0.48619553     1.08136654     0.27519016
O       4.43529002     0.69382498     1.11659998     0.55424289     1.39527470    -0.55790620
O       1.45395699     0.57933701     1.26320298    -0.12034721     2.32096500     0.17194284
O       4.35565699     8.17104999     4.12691600     0.90010756     1.78899378    -1.03030133
O       4.58392998     4.04951298     3.46779102    -1.08485373    -2.45007736    -1.87013346
O       1.52962399     8.22096998     4.11356200    -1.44845284    -0.17772397    -1.62073842
O       1.57121399     4.29202602     3.40902499    -1.68944038    -2.56702609    -0.49043451
O       2.93336698     6.38853400     3.44901602     0.11876161    -2.76713949    -0.39097083
O       3.16875899     1.64223598     3.17496603    -0.78788837    -1.06682900     2.19699535
O       5.81624198     6.20226498     3.47139001     0.89280125    -0.27681355    -0.40285139
O       2.89945100     7.98138800     1.63843199    -0.67149500    -0.62730801    -0.30540989
O       3.04241400     2.95860598     1.06969599    -0.54695689     1.23515790    -0.78599218
O       5.82798601     7.89484799     1.69535199     1.92844661     1.12628116    -1.06066761
O       0.07219301     2.77572100     1.12956498     1.40194594     1.68802190    -0.38312537
