# total energy = -19518.95899927 eV

CRYSTAL
PRIMVEC
        7.60600008     0.00000000     0.00000000
        0.00000000     7.60600008     0.00000000
       -1.89786986    -1.89786986     4.85670466
PRIMCOORD
23 1
Ti      3.80151798     6.60940401     1.21869002     1.26483641    -1.02315057    -0.11040887
Ti      3.87134900     2.79433603     1.26679599     0.11077422     0.87969942    -0.13808655
Ti      0.08965300     6.83115600     1.24897700    -1.87720785    -1.68116271    -0.19873966
Ti     -0.00268102     2.86364502     1.11897800    -0.63055146     1.70107976    -0.21506463
Ti      5.59302321     2.90047522     3.66295482     0.04853679    -0.40159592     1.56575407
Ti      5.67270122    -1.00554478     3.61032682     0.12673666     0.65563541    -0.61627514
Ti      2.00586722     2.76797623     3.56567881    -0.43170921     0.27010606     1.52968225
Ti      1.90052522    -1.01767479     3.67408881    -0.13932299    -0.10291718     0.02017880
O       4.05158799     4.70968700     0.77526399    -0.87150994     0.07768694     0.17730360
O       3.92350503     0.91398098     0.82599198    -0.35775243     0.23209074    -0.68165729
O      -0.14744201     4.78565002     0.82109698     0.90775299     0.53971821     0.09766827
O      -0.20630700     1.01481401     0.70628399     0.77080004    -1.14212893     0.87528123
O       5.61292224     4.74532322     4.02075383     1.11565735     0.43639273     0.53436208
O       5.56038324     0.99173521     4.09207984     0.51794867    -0.11189934    -0.95492889
O       1.69904824     4.64339024     3.98853684    -0.07927511     0.79871169     0.51328880
O       1.84535421     0.93468424     3.99683582    -0.01288175    -0.44546590     0.33908904
O       3.80732321     2.89194923     3.22482780    -0.57927773    -0.17115866    -0.65356412
O       3.80926624    -1.16619177     3.24164882    -1.41833570     0.50364793    -0.54131975
O      -0.02375376    -0.86191179     3.18659882     1.14709913    -0.22673513     0.61560846
O       5.72999402     6.78795000     1.73068600    -0.84346305    -0.22363926    -1.06202284
O       5.77670402     2.90341401     1.78147098     0.63653390    -0.37470551    -1.01927335
O       1.92342098     6.72476502     1.59716399     0.11061327    -0.04311716     0.27143969
O       1.79873999     2.85241699     1.64556302     0.48399801    -0.14709312    -0.34831467
