# total energy = -19076.51301114 eV

CRYSTAL
PRIMVEC
        7.60600008     0.00000000     0.00000000
        0.00000000     7.60600008     0.00000000
       -1.89786986    -1.89786986     4.85670466
PRIMCOORD
22 1
Ti      3.80492000     6.54980500     1.12787500    -0.69641132     0.65490084     0.62390490
Ti      3.78035999     2.85165502     1.22450102    -0.13104635    -0.20771976    -0.66282653
Ti     -0.00072000     6.70133998     1.17570897     0.60670755     0.30717289    -0.08559180
Ti     -0.04096901     2.92816897     1.20921600     0.35534741    -0.86259617     0.49328355
Ti      5.71162522     2.87479520     3.66519879     0.47996729    -0.06081330    -0.52552880
Ti      5.76520421    -0.94053678     3.66493981    -0.23993364    -0.28008503    -0.16307922
Ti      1.93277122     2.85207821     3.63066580    -0.51185746    -0.65413465    -0.56298413
Ti      1.89480122    -0.99192476     3.75743381    -0.12785098     0.73373449    -2.93259698
O       3.65199900     4.74891898     0.70899602     0.59043606    -0.57142429     0.69094361
O       3.73067299     0.89944300     0.68068202     0.29097725     0.29674861     2.99759604
O       0.03520902     4.78317300     0.81292902    -0.15998464    -0.46247504    -0.57995110
O      -0.04640001     0.97499898     0.86742200     0.09025141    -0.65770412    -0.41980988
O       5.73960621     4.74051120     3.94893183     0.16370271     0.44620715     0.87027066
O       5.73441424     0.89443322     3.90214680    -0.17601445     0.90797899     1.00211817
O       1.86395622     4.71649121     4.05905981     0.18106229     0.32614044    -0.92460015
O       1.82430920     0.93030022     4.13270880     0.60341037     0.06425343    -1.11063316
O       3.84011923     3.00928021     3.26591979    -0.25244077    -0.76060536    -0.27207578
O       0.04919322     2.81102622     3.25839780    -0.74262974     0.32132785    -1.12918470
O       5.60380001     6.44705603     1.76111702     0.93890937     0.73256567     0.10548983
O       5.69830202     2.84825400     1.53627802     0.26814790     0.19331875     0.61926945
O       1.94736699     6.65616200     1.65929898    -0.90027571     0.02108203     1.18396105
O       1.93996401     2.92444500     1.56015900    -0.63047510    -0.48787369     0.78202497
