# total energy = -4985.32131746 eV

CRYSTAL
PRIMVEC
        3.96514511     0.00000000     0.00000000
        0.00000000     2.99134259     0.00000000
        0.00000000    -0.00007909     5.24451850
PRIMCOORD
6 1
Ti      1.98257250     1.49563160     2.62225930     0.00000000     0.00000000     0.00000000
Ti      0.00000000     0.00000000     0.00000000     0.00000000     0.00000000     0.00000000
O       1.98257250     0.58295314     1.02207944     0.00000000    -1.05205518     0.51727170
O       1.98257250     2.40831005     4.22243917     0.00000000     1.05205518    -0.51727170
O       0.00000000     0.91264701     3.64433982     0.00000000     1.05180604     0.51655487
O       0.00000000     2.07861618     1.60017878     0.00000000    -1.05180604    -0.51655487
