# total energy = -4978.21625540 eV

CRYSTAL
PRIMVEC
        4.33896379     0.00000000     0.00000000
        0.00000000     2.26616871     0.00000000
        0.00000000    -0.00011953     6.04311570
PRIMCOORD
6 1
Ti      2.16948169     1.13302454     3.02155785     0.00000000     0.00000000     0.00000000
Ti      0.00000000     0.00000000     0.00000000     0.00000000     0.00000000     0.00000000
O       2.16948169     0.44161960     1.17771426    -0.00000000    -0.53143257     0.79987229
O       2.16948169     1.82442953     4.86540149    -0.00000000     0.53143257    -0.79987229
O       0.00000000     0.69135799     4.19927334     0.00000000     0.53113097     0.80638413
O       0.00000000     1.57469114     1.84384236     0.00000000    -0.53113097    -0.80638413
