# total energy = -19936.49059627 eV

CRYSTAL
PRIMVEC
        5.93748660     0.00000000     0.00000000
        2.14605537     5.94371668     0.00000000
        0.00000000     0.00000000    10.79841005
PRIMCOORD
24 1
Ti      3.42380383     3.52224091     4.00613313     0.31140930    -2.51757836     0.86481889
Ti      4.65973835     2.42147561     6.79227704    -0.31140930     2.51757836    -0.86481889
Ti      5.99500455     2.42147763     1.39302884    -1.07180049    -0.83976014     0.32095684
Ti      2.08853767     3.52223906     9.40538145     1.07180049     0.83976014    -0.32095684
Ti      2.35077629     0.55038272     1.39307214     0.31140930    -2.51757836    -0.86481889
Ti      5.73276591     5.39333391     9.40533815    -0.31140930     2.51757836     0.86481889
Ti      1.01551001     0.55038054     6.79223375     1.07180049     0.83976014     0.32095684
Ti      7.06803221     5.39333616     4.00617642    -1.07180049    -0.83976014    -0.32095684
O       2.63491463     2.09288362     5.51034600     1.70375140     2.08974406    -0.85469080
O       5.44862756     3.85083290     5.28806417    -1.70375140    -2.08974406     0.85469080
O       1.84519730     2.09290759     0.11117571    -0.21720122    -0.54833860     1.27560163
O       6.23834496     3.85080898    10.68723416     0.21720122     0.54833860    -1.27560163
O       4.37560000     0.87897460     0.11114067    -1.70375140    -2.08974406    -0.85469080
O       3.70794219     5.06474192    10.68726920     1.70375140     2.08974406     0.85469080
O       5.16531739     0.87895062     5.51038104     0.21720122     0.54833860     1.27560163
O       2.91822474     5.06476591     5.28802913    -0.21720122    -0.54833860    -1.27560163
O       1.52107511     3.61530532     2.91691996     0.52388586     2.04501945     1.95609087
O       6.56246707     2.32841120     7.88149021    -0.52388586    -2.04501945    -1.95609087
O       4.02516065     2.32835583     2.48231945     0.97746077     1.60474332     0.81752343
O       4.05838153     3.61536069     8.31609054    -0.97746077    -1.60474332    -0.81752343
O       0.44804755     0.64344702     2.48228495     0.52388586     2.04501945    -1.95609087
O       7.63549463     5.30026950     8.31612504    -0.52388586    -2.04501945     1.95609087
O       2.98535397     0.64350239     7.88152460    -0.97746077    -1.60474332     0.81752343
O       5.09818821     5.30021413     2.91688551     0.97746077     1.60474332    -0.81752343
