# total energy = -19516.72134209 eV

CRYSTAL
PRIMVEC
        5.17600016     0.00000000     0.00000000
        0.00000000     5.50899976     0.00000000
        0.00000000     0.00000000     9.26300011
PRIMCOORD
23 1
Ti      1.85509800     3.21996800     3.29295303    -0.35249709     0.31483453     2.45078544
Ti      3.38669598     2.20019100     5.82892101    -0.75075263     0.14927342    -1.69465715
Ti      4.41303298     2.07974798     1.47318501     0.94476558    -1.72814629    -0.98850597
Ti      0.86049698     3.34702002     7.83765298     1.39528395     1.00929875     2.76792368
Ti      1.81059901     0.50617402     1.32503300    -0.04723067    -0.28270987    -2.46765651
Ti      3.36593498     5.18017500     7.86214801    -1.60681769     1.05052177     1.46420754
Ti      0.73020698     0.64836199     5.79266401    -0.29734742    -0.92772764    -2.90114878
Ti      4.35510199     4.85550401     3.43081402     0.81655850     0.06165508     2.50277702
O       1.85495899     1.91766602     4.71020803    -1.86073145    -0.24582326     0.52422268
O       3.37233999     3.65722499     4.59010500     0.43290914    -0.07976131     0.07564497
O       0.66255802     2.40612202     0.27370598    -0.02507444    -0.16471033    -0.41378578
O       3.52491200     1.01972202     0.10400698    -0.58676298    -0.79392121    -0.51558968
O       1.63002299     4.83165600     9.04863897     0.82633666     0.71491915     0.63769373
O       4.27161798     0.72762502     4.77610001    -0.96435559     1.74181968     0.59665993
O       0.83112002     4.75438300     4.40981500     1.15805383    -0.82167011     0.67192027
O       0.02540601     3.17032101     2.79492601     0.01067111     0.66483250    -0.57032334
O       5.16345702     2.11554402     6.86681800    -1.45196137    -0.78947989    -1.09804375
O       2.77303098     1.75443701     2.42490897    -0.38966368     1.38824864    -0.62877277
O       2.56427003     3.45141198     7.18953002     1.11841126    -0.95114243    -0.14726822
O       0.13499502     0.57145401     2.33114803     0.39785831     0.71823536    -2.25106182
O       5.10763501     4.85108898     7.12007402    -1.09306609    -0.19317785     0.51521250
O       2.39779298     0.50832798     6.54257501     1.79933631     0.05766524     1.83416037
O       2.64430798     4.75429902     2.38670698     0.52607618    -0.89303393    -0.36439436
