# total energy = -19517.86526047 eV

CRYSTAL
PRIMVEC
        5.93400000     0.00000000     0.00000000
        0.00000000     9.29699974     0.00000000
        0.00000000     0.00000000     4.64899994
PRIMCOORD
23 1
Ti      4.43612898     7.05855003     2.23782598    -0.01496511    -0.09753586     0.27659912
Ti      4.52648102     2.38110098     2.33870600    -0.67098875    -1.58949950     0.39851522
Ti      1.38113500     6.97245500     2.19557800    -0.07953505    -0.27096763     0.52666934
Ti      1.49717802     2.35374098     2.31934600     0.07233107    -1.35764762     0.65031065
Ti      2.99269801     4.48812900     0.19334099    -0.50639130     0.91682590    -0.19891476
Ti      3.01942998     0.04982500     4.60846301    -0.66723828     0.72511949    -0.00498614
Ti      5.91300902     4.56158500     0.00371900     0.42632943     1.27466215    -0.82050180
Ti      0.02278500     0.00050103     4.57380201     0.32134353     0.72968578     0.20551632
O       4.50223502     5.48595499     0.93026101    -0.84483499     0.87235917     0.43009173
O       4.44430000     0.94513602     0.90981402     0.16230018     0.09356736    -0.11158258
O       1.45301299     5.48890701     1.00333700     0.65592645     0.57585122    -0.04619914
O       1.51436199     0.95478700     0.85117102    -0.80973247     0.33026398     0.51107842
O       4.37227400     8.40865301     3.64682100     0.77661331    -0.56221691     0.06629181
O       4.38724999     3.64862200     3.88069099     0.30468921    -0.12452963    -0.64720038
O       1.38738199     8.52415600     3.66114799     0.58806910    -1.40972302    -0.51504075
O       1.59722601     3.68573002     3.78559101    -0.43303615     0.31370196     0.22328137
O       3.03324998     1.34517000     3.19277702    -0.52794975     0.85398066    -0.35689368
O       5.90193001     6.06412501     3.38014800     0.16016359     0.32565759    -0.99234720
O       0.00274198     1.45619101     3.22838001    -0.06377727    -0.04193291     0.09002335
O       2.91763300     7.94502902     1.37144698     0.07469057    -1.62375741     0.98095490
O       2.93580902     3.33198800     1.54773000     0.62900854    -0.75798875     0.41886448
O       5.89272799     7.70818400     1.32661599     0.05125445     1.39473117    -0.67063497
O       5.92585999     3.39378098     1.59454001     0.39572995    -0.57060668    -0.41389557
