# total energy = -4984.35861963 eV

CRYSTAL
PRIMVEC
        3.74485927     0.00000000     0.00000000
        0.00000000     2.82515689     0.00000000
        0.00000000    -0.00007469     4.95315636
PRIMCOORD
6 1
Ti      1.87242959     1.41254095     2.47657823     0.00000000     0.00000000     0.00000000
Ti      0.00000000     0.00000000     0.00000000     0.00000000     0.00000000     0.00000000
O       1.87242959     0.55056686     0.96529725     0.00000000    -2.30872500    -1.54304531
O       1.87242959     2.27451505     3.98785921     0.00000000     2.30872500     1.54304531
O       0.00000000     0.86194440     3.44187650     0.00000000     2.30788425    -1.53955837
O       0.00000000     1.96313750     1.51127996     0.00000000    -2.30788425     1.53955837
