# total energy = -4976.49616033 eV

CRYSTAL
PRIMVEC
        4.02744844     0.00000000     0.00000000
        0.00000000     2.10346942     0.00000000
        0.00000000    -0.00011095     5.60925099
PRIMCOORD
6 1
Ti      2.01372403     1.05167919     2.80462549     0.00000000     0.00000000     0.00000000
Ti      0.00000000     0.00000000     0.00000000     0.00000000     0.00000000     0.00000000
O       2.01372403     0.40991358     1.09316042    -0.00000000    -1.27481821    -1.73122879
O       2.01372403     1.69344484     4.51609062    -0.00000000     1.27481821     1.73122879
O       0.00000000     0.64172203     3.89778705     0.00000000     1.27416798    -1.73287249
O       0.00000000     1.46163639     1.71146394     0.00000000    -1.27416798     1.73287249
