# total energy = -19922.93827106 eV

CRYSTAL
PRIMVEC
        7.14253839     0.00000000     0.00000000
        0.00003018     5.61873715     0.00000000
        0.00000000     0.00000000    11.37202143
PRIMCOORD
24 1
Ti      2.58884453     3.32965848     4.21893884     0.48697766    -0.70459746     1.06258102
Ti      4.55372410     2.28907887     7.15308265    -0.48697766     0.70459746    -1.06258102
Ti      6.15999037     2.28908082     1.46702647     0.48672466     0.70427838    -1.06243267
Ti      0.98257826     3.32965678     9.90499515    -0.48672466    -0.70427838     1.06243267
Ti      2.58882957     0.52029003     1.46707206     0.48697766    -0.70459746    -1.06258102
Ti      4.55373906     5.09844751     9.90494956    -0.48697766     0.70459746     1.06258102
Ti      0.98256330     0.52028788     7.15303706    -0.48672466    -0.70427838    -1.06243267
Ti      6.16000533     5.09844965     4.21898444     0.48672466     0.70427838     1.06243267
O       2.26066916     1.97845290     5.80305549     0.83815526     1.37224377    -1.13224149
O       4.88189953     3.64028444     5.56896600    -0.83815526    -1.37224377     1.13224149
O       1.31066311     1.97847557     0.11708136    -0.83749603     1.37248957    -1.13306861
O       5.83190565     3.64026184    11.25493982     0.83749603    -1.37248957     1.13306861
O       4.88188457     0.83091580     0.11704446    -0.83815526    -1.37224377    -1.13224149
O       2.26068412     4.78782154    11.25497672     0.83815526     1.37224377     1.13224149
O       5.83189069     0.83089320     5.80309239     0.83749603    -1.37248957    -1.13306861
O       1.31067795     4.78784421     5.56892911    -0.83749603     1.37248957     1.13306861
O       0.25952331     3.41763444     3.07186670    -1.37232579     0.28345780     0.06705594
O       6.88304539     2.20110291     8.30015480     1.37232579    -0.28345780    -0.06705594
O       3.83080020     2.20105050     2.61418021    -1.37237850    -0.28342978    -0.06703691
O       3.31176849     3.41768691     8.75784109     1.37237850     0.28342978     0.06703691
O       0.25950835     0.60826586     2.61414389    -1.37232579     0.28345780    -0.06705594
O       6.88306035     5.01047154     8.75787741     1.37232579    -0.28345780     0.06705594
O       3.31175353     0.60831827     8.30019106     1.37237850     0.28342978    -0.06703691
O       3.83081516     5.01041908     3.07183037    -1.37237850    -0.28342978     0.06703691
