# total energy = -19960.93934136 eV

CRYSTAL
PRIMVEC
        5.93400000     0.00000000     0.00000000
        0.00000000     9.29699974     0.00000000
        0.00000000     0.00000000     4.64899994
PRIMCOORD
24 1
Ti      4.46364302     6.87109502     2.23959798    -0.80579251     1.53093206     0.18226300
Ti      4.44357900     2.30269200     2.28389297    -0.37094322     0.85415370     0.39674013
Ti      1.45131899     6.98092501     2.35594898     0.55247834     1.32999231    -0.28100163
Ti      1.47350702     2.27414902     2.36962202     0.18510073     0.08075555    -0.13078204
Ti      2.94081800     4.69894099     4.58671700     0.55669058    -0.84295602    -0.24087363
Ti      2.97109298     0.08052400     0.03554902     0.11740433    -1.73063281    -0.36673715
Ti      0.04257998     4.61625102     0.00587403    -0.61862488    -0.50705490    -0.38020639
Ti      5.92575098     0.06569900     0.01744301    -0.29909423    -1.47169845    -0.83094871
O       4.36503999     5.50160297     0.88031398     1.11697016     0.60781210     0.26088196
O       4.46831999     0.86032902     0.96365601     0.09127240     0.82911834     0.64558162
O       1.46090699     5.60750002     0.81853201    -0.20238806    -0.48047097     0.22861718
O       1.42256699     0.90554399     0.94472898     0.80604988     0.67578438     0.81559922
O       4.45496102     8.36308498     3.81236801     0.05242893     0.16116786    -0.41956640
O       4.42239497     3.71682601     3.73058298     0.38009198     0.45021781     0.36959107
O       1.56574600     8.50344999     3.75661400    -0.77727331    -1.08731967    -0.66040789
O       1.47010600     3.74573401     3.66315400    -0.23285462     0.27157159     1.08718958
O       2.89688798     6.00573601     3.12521601     0.80978955    -0.10603902     0.62034752
O       2.99223699     1.40327498     3.34425898     0.02659730     1.05339421    -1.21501124
O       0.00997399     6.05572299     3.25829398    -0.27816184     0.12764118    -0.48006782
O       5.91164602     1.46679499     3.30582902     0.45522992    -0.04901810    -0.30307095
O       2.98086302     7.83065001     1.40704601     0.16066033    -0.01693355     0.51739099
O       3.04751501     3.28784901     1.46025298    -0.71548737    -0.91455510    -0.06535515
O       0.05737202     7.90662801     1.37229398    -0.57144640    -1.08207873     0.98882093
O       0.06930798     3.21955498     1.47905502    -0.43869747     0.31621624    -0.73899472
