# total energy = -19073.53768689 eV

CRYSTAL
PRIMVEC
        5.93400000     0.00000000     0.00000000
        0.00000000     9.29699974     0.00000000
        0.00000000     0.00000000     4.64899994
PRIMCOORD
22 1
Ti      4.41082600     7.02682601     2.25812998    -1.33891404    -1.31295000     0.08761500
Ti      4.41221101     2.33365500     2.35298902     0.66373593    -1.45563265    -0.46052743
Ti      1.48523702     7.10344601     2.53356399     1.20155923    -1.03622078    -0.00187922
Ti      1.54566801     2.49877598     2.00980101    -0.06725700     0.42706091     0.05734848
Ti      3.03517698     4.59886903     4.57707200    -2.14002277     1.91009279     0.98271867
Ti      2.94750802     9.27696901     4.55341402     1.14370142     1.43882354     0.93869571
Ti      5.80826299     4.53191302     4.39851897     2.84581296     0.91054264     1.65814335
Ti      5.88658599     9.05718598     0.26573302    -0.30182551     2.07082922    -0.70298177
O       4.57631898     5.62736401     0.79940003    -0.27656441     0.46965896     1.28348720
O       4.48363602     0.81589199     1.03692499     0.12217990     0.52777980    -0.93846020
O       1.36024901     0.92423400     0.88689901     0.65446015     0.83415025    -0.50741305
O       4.49326398     8.26543500     3.88463002    -0.29176401     0.71670479    -0.40668542
O       4.35184999     3.78763501     3.76890002     0.32113065    -2.95384150    -2.53861024
O       1.56864801     8.17647099     3.95911299    -0.94583104     1.04313988     0.73304004
O       1.58864498     3.59666701     3.70588601    -0.53264150     1.27812619     0.25018077
O       3.13077898     6.13097502     3.34413902    -1.24381198    -0.80628308    -0.57973230
O       2.95748402     1.47871798     3.08043798    -0.92484852    -1.92669852     1.99263886
O       0.09412301     6.10703001     3.36153101    -0.23051054    -0.80616635    -1.03803752
O       2.87409399     8.08870298     1.59153799     0.54573485    -0.95170422    -0.48726434
O       3.21374699     3.19795603     1.39212601    -1.84037164     1.81143181    -1.43239347
O       5.93255799     8.07640902     1.69486498     0.85227268    -1.71806782     1.13637660
O       5.76530401     3.30340698     1.40895099     1.78377573    -0.47077611    -0.02626023
