# total energy = -4974.39366392 eV

CRYSTAL
PRIMVEC
        4.26713249     0.00000000     0.00000000
       -0.00000693     2.84475466     0.00000000
       -2.13359139    -1.42242074     4.72726570
PRIMCOORD
6 1
Ti     -0.00018339     2.13366934     1.18181618    -0.00953648    -0.01430537    19.52745476
Ti      2.13371762    -0.71133572     3.54544888     0.00953648     0.01430537   -19.52745476
O       0.00004490     0.71118094     0.77003284     0.00846973     0.01468795    -9.86098261
O       2.13348922     0.71115264     3.95723227    -0.00846973    -0.01468795     9.86098261
O      -0.00001829    -0.71118356     3.13366559    -0.00138120    -0.00023166     0.38337296
O       2.13355236     2.13351709     1.59359957     0.00138120     0.00023166    -0.38337296
