# total energy = -19925.68327424 eV

CRYSTAL
PRIMVEC
        6.15397674     0.00000000     0.00000000
        2.80536872     5.91847715     0.00000000
        0.00000000     0.00000000    11.31861756
PRIMCOORD
24 1
Ti      3.89297942     3.50728405     4.19912636     0.41237862    -2.72353639     0.65496640
Ti      5.06636583     2.41119302     7.11949126    -0.41237862     2.72353639    -0.65496640
Ti      6.45031805     2.41119503     1.46013724    -1.35707606    -1.13938993     0.54419193
Ti      2.50902731     3.50728227     9.85848056     1.35707606     1.13938993    -0.54419193
Ti      2.49029521     0.54804556     1.46018261     0.41237862    -2.72353639    -0.65496640
Ti      6.46905008     5.37043169     9.85843520    -0.41237862     2.72353639     0.65496640
Ti      1.10634294     0.54804338     7.11944590     1.35707606     1.13938993     0.54419193
Ti      7.85300241     5.37043385     4.19917178    -1.35707606    -1.13938993    -0.54419193
O       2.93559045     2.08399639     5.77580391     1.76508689     2.11499256    -0.98005861
O       6.02375480     3.83448068     5.54281377    -1.76508689    -2.11499256     0.98005861
O       2.11708117     2.08402030     0.11653153     0.21002347    -1.08645527     1.63330366
O       6.84226417     3.83445688    11.20208585    -0.21002347     1.08645527    -1.63330366
O       4.62107056     0.87524208     0.11649476    -1.76508689    -2.11499256    -0.98005861
O       4.33827470     5.04323505    11.20212256     1.76508689     2.11499256     0.98005861
O       5.43957992     0.87521822     5.77584062    -0.21002347     1.08645527     1.63330366
O       3.51976529     5.04325893     5.54277701     0.21002347    -1.08645527    -1.63330366
O       1.92997245     3.59995334     3.05744099     0.66133760     2.78896328     2.61301388
O       7.02937274     2.31852374     8.26117670    -0.66133760    -2.78896328    -2.61301388
O       4.39954697     2.31846867     2.60190383     0.87360127     1.91363705     1.42180618
O       4.55979828     3.60000840     8.71671361    -0.87360127    -1.91363705    -1.42180618
O       0.52728819     0.64071468     2.60186767     0.66133760     2.78896328    -2.61301388
O       8.43205700     5.27776241     8.71674977    -0.66133760    -2.78896328     2.61301388
O       3.15711402     0.64076974     8.26121273    -0.87360127    -1.91363705     1.42180618
O       5.80223123     5.27770733     3.05740483     0.87360127     1.91363705    -1.42180618
