# total energy = -19515.84785437 eV

CRYSTAL
PRIMVEC
        5.17600016     0.00000000     0.00000000
        0.00000000     5.50899976     0.00000000
        0.00000000     0.00000000     9.26300011
PRIMCOORD
23 1
Ti      1.89266001     3.24699102     3.27421401    -1.33208724    -0.04261991     3.83784726
Ti      3.29664298     2.27883901     5.94485099     0.02216317     0.02584422    -2.38174307
Ti      4.30120100     2.00087199     1.41814502     3.94533998     1.07949683    -1.68361374
Ti      1.09463500     3.22846399     7.81233100    -2.56818745     1.22302101     0.50977307
Ti      1.93692600     0.31568000     1.36271699    -0.31226574    -0.64346663    -1.25428049
Ti      3.34468402     5.28018997     7.93021503     0.02615430    -0.81183975     0.38882550
Ti      0.67604600     0.60565400     5.92377799    -0.06490161    -1.98556858    -2.56582255
Ti      4.44279201     4.84962602     3.51692200     2.20366068    -0.12593268     2.85083999
O       1.78751498     1.74554699     4.82991803    -0.75410792     0.91026290    -1.36550260
O       3.55238799     3.26830400     4.32595200     0.75861995     1.01993900    -0.02732312
O       4.96769297     2.75751799     8.96672398    -0.22636592    -0.86131268     2.39986267
O       3.56256301     0.69058499     0.35561902     0.10370754    -1.07946804    -1.74992688
O       1.72696001     4.73598102     9.09204601     1.07224709    -0.67389899     0.39452410
O       4.08531499     0.62323300     4.87617399     0.69591021    -0.17204235    -0.09365992
O       0.91848200     4.71104899     4.56039001    -0.27341918    -0.90828264    -0.68823109
O       0.21898402     3.19778198     2.37077700     0.01844459     0.93269013     0.75139412
O       5.12818698     2.17629198     6.55521298    -0.83529979     0.97037712     0.53545120
O       2.62366800     2.20169799     1.94394199    -1.81051418    -0.57508271    -0.13307598
O       2.58083698     3.95853201     6.78005399     0.61757407    -1.59147822     0.07564085
O       0.23473599     0.49910501     2.08912198    -0.88715793     0.46773115     0.32002224
O       5.13439000     4.73331302     7.36305200    -0.64211525     1.52931998    -0.89814992
O       2.22534898     1.03026598     7.04164800     0.86428205     0.92435512     2.01163160
O       2.76379599     4.85268201     2.66499198    -0.62168166     0.38795570    -1.23448350
