# total energy = -19960.75838776 eV

CRYSTAL
PRIMVEC
        5.93400000     0.00000000     0.00000000
        0.00000000     9.29699974     0.00000000
        0.00000000     0.00000000     4.64899994
PRIMCOORD
24 1
Ti      4.49624801     6.97667599     2.39205702    -0.40461774     0.44925905    -0.55657899
Ti      4.43000401     2.31257200     2.22535401    -0.15122000    -0.11259096     1.19528265
Ti      1.48217002     6.94677599     2.34284200     0.47269441     0.61234213    -0.64239088
Ti      1.48597502     2.37642300     2.28786900     0.17053465    -0.43922789     0.91471014
Ti      2.99222101     4.68739900     0.00218201    -0.40497435    -1.43742049    -0.32397789
Ti      2.95739501     0.00377102     0.06876902    -0.58221599     1.08798739    -0.20041808
Ti      5.91538101     4.61922499     0.03440102     0.57567921    -1.52707181    -0.54390782
Ti      0.01465498     0.03020798     4.60250299     0.64912588     0.89921333     0.09479867
O       4.48377901     5.54554098     0.91127000    -0.54731736     0.29344011     0.34519104
O       4.45414497     0.89569198     0.92704298     0.21982066    -0.36550328    -0.24096491
O       1.45390402     5.42822699     0.96215098     0.51037651     0.75614835     0.08951890
O       1.39642399     0.91001299     0.99088001     0.10452618    -0.93543941    -1.38821110
O       4.40292199     8.50088602     3.77830101     0.54837151    -1.51498942    -0.95672173
O       4.43263799     3.73753701     3.63988301    -0.02084137     0.82635158     1.02810997
O       1.53220801     8.39860701     3.80588797    -0.59058801    -0.36839114    -0.42904477
O       1.44263799     3.68707699     3.72250102     0.15916189     1.36174853     0.45190317
O       3.01134998     5.97688601     3.26499701     0.13700360     1.16318010    -0.71299005
O       2.88193698     1.40252900     3.21955000     0.65811241    -0.01224643     0.32826777
O       0.05552001     6.13165199     3.22170899    -0.99835613    -0.36480625     0.79838388
O       0.01772299     1.54482598     3.14989303    -0.92118187    -1.98137254     1.61106592
O       2.93362998     7.94200800     1.55484997     0.79604854    -0.60298742    -0.42869896
O       2.92150801     3.12963300     1.33605402     0.81104579     1.07495112    -0.61925968
O       0.09656897     7.79637202     1.30978900    -0.89261253    -0.06212327     1.00568095
O       5.89417899     3.16498601     1.34393998    -0.29857538     1.19954862    -0.81974847
