# total energy = -19069.01171007 eV

CRYSTAL
PRIMVEC
        5.93400000     0.00000000     0.00000000
        0.00000000     9.29699974     0.00000000
        0.00000000     0.00000000     4.64899994
PRIMCOORD
22 1
Ti      4.57416597     7.08538000     2.35030599    -2.29860719    -0.33087590    -1.43238550
Ti      4.26063401     2.36332999     1.92111101    -1.11657884     0.25184685     2.50398184
Ti      1.56029500     7.15914699     2.67292599    -0.47383675     0.62679790    -0.18473434
Ti      1.48975599     2.28317398     2.07336399     2.01561759     1.66987247     1.16165055
Ti      3.05258400     4.66377902     4.39006600    -0.54777065     0.44883430     0.14916055
Ti      2.81962001     9.29393898     0.33520997     3.17918258     1.72870602    -2.68342794
Ti      5.85472502     4.64077701     4.43356099     0.27122654     0.64043247     1.59128693
Ti      5.84423699     8.97218001     0.31043099    -1.69162453     0.40586395    -0.75421025
O       4.52201000     5.65401602     0.93712798    -0.70382150    -1.50886890     0.00583255
O       4.62017698     0.71677900     1.34854001     2.43628853    -1.95618960    -1.42569009
O       1.50237602     0.60265499     1.33535402    -4.65391648    -0.35876544     0.18868433
O       4.40334698     8.37128701     3.86350601     0.29189359     2.04763477     1.21301324
O       4.44064598     3.93076100     3.47263199     0.96580415    -1.15256735    -1.09436861
O       1.38742501     8.58499302     3.85075898     0.74477250     0.95367548    -0.20121872
O       1.73266300     3.98334000     3.28951200    -1.22952538    -0.01297431     1.06624896
O       2.88331200     6.38619498     3.61664398     0.60020189    -1.64767485    -0.14763614
O       3.08488699     1.38512198     3.20705899    -0.07080589     1.79308312    -1.66141431
O       5.82389298     6.60871401     3.48686500     2.58154511    -3.92527688     1.18993758
O       2.96125901     8.14034501     1.76252601     0.16886163    -2.09004334    -0.52444893
O       2.95130598     2.22047500     0.64103400    -0.37228148     3.15095237     1.14394156
O       0.17270001     7.47642500     1.23685398     0.86921317    -0.23353390     1.13346405
O       0.19646600     3.41386601     1.30818702    -0.96583860    -0.50092924    -1.23766730
