# total energy = -19934.58144866 eV

CRYSTAL
PRIMVEC
        6.04668897     0.00000000     0.00000000
        0.95995893     6.36350612     0.00000000
        0.00000000     0.00000000    10.85297769
PRIMCOORD
24 1
Ti      2.76050467     3.77100777     4.02637735    -0.02940340    -1.55165851     0.78917701
Ti      4.24614315     2.59249817     6.82660059     0.02940340     1.55165851    -0.78917701
Ti      5.60596711     2.59250032     1.40006822    -0.01711841    -0.00164705    -0.33622277
Ti      1.40068073     3.77100587     9.45290985     0.01711841     0.00164705     0.33622277
Ti      2.28052534     0.58925482     1.40011174    -0.02940340    -1.55165851    -0.78917701
Ti      4.72612250     5.77425130     9.45286632     0.02940340     1.55165851     0.78917701
Ti      0.92070137     0.58925249     6.82655706     0.01711841     0.00164705    -0.33622277
Ti      6.08594647     5.77425364     4.02642088    -0.01711841    -0.00164705     0.33622277
O       2.25183307     2.24069861     5.53819150     1.62587137     1.74370250    -0.40887729
O       4.75481475     4.12280734     5.31478638    -1.62587137    -1.74370250     0.40887729
O       1.44758632     2.24072433     0.11173748    -0.96443787     0.56168649     0.57042799
O       5.55906157     4.12278167    10.74124015     0.96443787    -0.56168649    -0.57042799
O       4.27483541     0.94105420     0.11170228    -1.62587137    -1.74370250    -0.40887729
O       2.73181242     5.42245174    10.74127535     1.62587137     1.74370250     0.40887729
O       5.07908222     0.94102854     5.53822676     0.96443787    -0.56168649     0.57042799
O       1.92756555     5.42247747     5.31475118    -0.96443787     0.56168649    -0.57042799
O       0.80359162     3.87064514     2.93166009     0.41457820     0.78044323     1.05890897
O       6.20305620     2.49286074     7.92131785    -0.41457820    -0.78044323    -1.05890897
O       3.61909516     2.49280156     2.49486341     0.63374760     1.11244270     0.31244006
O       3.38755266     3.87070433     8.35811435    -0.63374760    -1.11244270    -0.31244006
O       0.32361227     0.68889201     2.49482870     0.41457820     0.78044323    -1.05890897
O       6.68303555     5.67461387     8.35814899    -0.41457820    -0.78044323     1.05890897
O       2.90757331     0.68895119     7.92135244    -0.63374760    -1.11244270     0.31244006
O       4.09907451     5.67455469     2.93162544     0.63374760     1.11244270    -0.31244006
