# total energy = -19929.64472779 eV

CRYSTAL
PRIMVEC
        7.31075071     0.00000000     0.00000000
        0.00002759     4.66850955     0.00000000
        0.00000000     0.00000000    11.16555604
PRIMCOORD
24 1
Ti      2.64981164     2.76655441     4.14234167     0.48111297    -0.05847076     1.48799025
Ti      4.66096618     1.90195507     7.02321448    -0.48111297     0.05847076    -1.48799025
Ti      6.30506122     1.90195664     1.44039180     0.48136545     0.05823859    -1.48768789
Ti      1.00571666     2.76655302     9.72516442    -0.48136545    -0.05823859     1.48768789
Ti      2.64979809     0.43229970     1.44043659     0.48111297    -0.05847076    -1.48799025
Ti      4.66097973     4.23620990     9.72511969    -0.48111297     0.05847076     1.48799025
Ti      1.00570305     0.43229801     7.02316970    -0.48136545    -0.05823859    -1.48768789
Ti      6.30507477     4.23621160     4.14238640     0.48136545     0.05823859     1.48768789
O       2.31390834     1.64386153     5.69769780     1.08724331     0.97527533    -1.19688907
O       4.99686954     3.02464790     5.46785835    -1.08724331    -0.97527533     1.19688907
O       1.34152893     1.64388038     0.11495566    -1.08779173     0.97604434    -1.19788795
O       5.96924901     3.02462911    11.05060013     1.08779173    -0.97604434     1.19788795
O       4.99685599     0.69039307     0.11491943    -1.08724331    -0.97527533    -1.19688907
O       2.31392189     3.97811636    11.05063637     1.08724331     0.97527533     1.19688907
O       5.96923539     0.69037427     5.69773398     1.08779173    -0.97604434    -1.19788795
O       1.34154237     3.97813521     5.46782212    -1.08779173     0.97604434     1.19788795
O       0.26563316     2.83965215     3.01609524    -1.86676300     0.66718789     0.64492753
O       7.04514472     1.82885727     8.14946085     1.86676300    -0.66718789    -0.64492753
O       3.92101693     1.82881387     2.56671830    -1.86526996    -0.66706422    -0.64535973
O       3.38976089     2.83969561     8.59883762     1.86526996     0.66706422     0.64535973
O       0.26561955     0.50539732     2.56668266    -1.86676300     0.66718789    -0.64492753
O       7.04515827     4.16311210     8.59887326     1.86676300    -0.66718789     0.64492753
O       3.38974733     0.50544078     8.14949643     1.86526996     0.66706422    -0.64535973
O       3.92103049     4.16306864     3.01605960    -1.86526996    -0.66706422     0.64535973
