# total energy = -19898.17674402 eV

CRYSTAL
PRIMVEC
        6.77506023     0.00000000     0.00000000
        0.00002219     3.09030543     0.00000000
        0.00000000     0.00000000    10.31111213
PRIMCOORD
24 1
Ti      2.45564651     1.83131215     3.82534906    -1.21109237     0.94646816    -1.53096523
Ti      4.31943561     1.25899333     6.48576322     1.21109237    -0.94646816     1.53096523
Ti      5.84306066     1.25899438     1.33016584    -1.20894935    -0.94680935     1.53133136
Ti      0.93202145     1.83131120     8.98094654     1.20894935     0.94680935    -1.53133136
Ti      2.45563556     0.28615948     1.33020720    -1.21091702     0.94687671     1.52894383
Ti      4.31944655     2.80414605     8.98090518     1.21091702    -0.94687671    -1.52894383
Ti      0.93201051     0.28615833     6.48572186     1.20917535     0.94680369     1.53362221
Ti      5.84307161     2.80414720     3.82539043    -1.20917535    -0.94680369    -1.53362221
O       2.14435707     1.08814907     5.26168164     7.41945854    -1.95336473     4.53956251
O       4.63072505     2.00215637     5.04943065    -7.41945854     1.95336473    -4.53956251
O       1.24322812     1.08816153     0.10615867    -7.41918472    -1.95480994     4.54216729
O       5.53185405     2.00214395    10.20495332     7.41918472     1.95480994    -4.54216729
O       4.63071415     0.45700365     0.10612522    -7.41932176     1.95448161     4.54192150
O       2.14436797     2.63330183    10.20498676     7.41932176    -1.95448161    -4.54192150
O       5.53184315     0.45699118     5.26171508     7.41989794     1.95444999     4.53992298
O       1.24323892     2.63331430     5.04939720    -7.41989794    -1.95444999    -4.53992298
O       0.24616700     1.87969893     2.78528865     3.15437760    -1.28539728     0.95059684
O       6.52891512     1.21060650     7.52582363    -3.15437760     1.28539728    -0.95059684
O       3.63370573     1.21057771     2.37030027     3.15758736     1.28622286    -0.94357053
O       3.14137638     1.87972777     7.94081186    -3.15758736    -1.28622286     0.94357053
O       0.24615610     0.33454621     2.37026737     3.15493501    -1.28525098    -0.94381221
O       6.52892601     2.75575927     7.94084477    -3.15493501     1.28525098     0.94381221
O       3.14136549     0.33457501     7.52585649    -3.15670882    -1.28513811    -0.95087143
O       3.63371663     2.75573048     2.78525575     3.15670882     1.28513811     0.95087143
