# total energy = -4988.01730762 eV

CRYSTAL
PRIMVEC
        4.15060986     0.00000000     0.00000000
        0.41401629     4.12990953     0.00000000
       -2.28234989    -2.06498807     5.30375217
PRIMCOORD
6 1
Ti      0.31035317     3.09758925     1.32593778    -0.00054662     0.00054662    -0.00000000
Ti      1.97192273    -1.03266812     3.97781375     0.00054662    -0.00054662     0.00000000
O       0.10354783     1.03247085     0.86393780    -0.00056564    -0.00171081    -1.00458257
O       2.17872795     1.03245017     4.43981385     0.00056564     0.00171081     1.00458257
O      -0.10352486    -1.03245007     3.51581377    -0.00171081    -0.00056564    -1.00458257
O       2.38580058     3.09737103     1.78793788     0.00171081     0.00056564     1.00458257
