# total energy = -4988.13074676 eV

CRYSTAL
PRIMVEC
        3.07500371     0.00000000     0.00000000
        1.41361424     4.60602779     0.00000000
       -0.00000941    -0.00006314     4.87443907
PRIMCOORD
6 1
Ti      2.24430433     2.30298237     2.43721954     0.00000000     0.00000000     0.00000000
Ti      0.00000000     0.00000000     0.00000000     0.00000000     0.00000000     0.00000000
O       1.81299263     0.89763476     0.94995636    -0.98233224     0.55015792     0.39043964
O       2.67561609     3.70832996     3.92448265     0.98233224    -0.55015792    -0.39043964
O       0.43130784     1.40532204     3.38717698     0.98229521    -0.55007667     0.39026429
O       0.98229718     3.20064246     1.48726209    -0.98229521     0.55007667    -0.39026429
