# total energy = -19945.78172419 eV

CRYSTAL
PRIMVEC
        5.04423640     0.00000000     0.00000000
        1.82319749     5.04952921     0.00000000
        0.00000000     0.00000000     9.17387049
PRIMCOORD
24 1
Ti      2.90871830     2.99234626     3.40344053     2.80330978    -2.94042934     1.15968751
Ti      3.95871577     2.05718282     5.77043005    -2.80330978     2.94042934    -1.15968751
Ti      5.09310121     2.05718454     1.18345813    -5.61413413     0.54467427     1.80874321
Ti      1.77433289     2.99234469     7.99041256     5.61413413    -0.54467427    -1.80874321
Ti      1.99711968     0.46758178     1.18349491     2.80384329    -2.94164238    -1.15948594
Ti      4.87031440     4.58194740     7.99037578    -2.80384329     2.94164238     1.15948594
Ti      0.86273417     0.46757992     5.77039327     5.61506307    -0.54484190     1.80852569
Ti      6.00469993     4.58194930     3.40347731    -5.61506307     0.54484190    -1.80852569
O       2.23851154     1.77802502     4.68135589    -0.50341216     0.50911770    -1.05653764
O       4.62892253     3.27150406     4.49251470     0.50341216    -0.50911770     1.05653764
O       1.56760124     1.77804539     0.09445016     1.19106270    -0.70750563    -0.33797575
O       5.29983288     3.27148373     9.07942017    -1.19106270     0.70750563     0.33797575
O       3.71732389     0.74673949     0.09442039     0.50385130    -0.50898066    -1.05671968
O       3.15011018     4.30278959     9.07944994    -0.50385130     0.50898066     1.05671968
O       4.38823424     0.74671911     4.68138566    -1.19031733     0.70740202    -0.33752555
O       2.47919978     4.30280998     4.49248493     1.19031733    -0.70740202     0.33752555
O       1.29224080     3.07140983     2.47809129    -0.05132849    -1.21512977    -1.30718070
O       5.57519327     1.97811925     6.69577930     0.05132849     1.21512977     1.30718070
O       3.41960551     1.97807221     2.10887316     1.81927213    -1.54241179    -2.25042932
O       3.44782856     3.07145687     7.06499727    -1.81927213     1.54241179     2.25042932
O       0.38064217     0.54664526     2.10884385    -0.05138146    -1.21516345     1.30755377
O       6.48679190     4.50288382     7.06502658     0.05138146     1.21516345    -1.30755377
O       2.53622993     0.54669229     6.69580851    -1.81881576     1.54230611    -2.25057793
O       4.33120414     4.50283679     2.47806203     1.81881576    -1.54230611     2.25057793
