# total energy = -19516.99682931 eV

CRYSTAL
PRIMVEC
        5.17600016     0.00000000     0.00000000
        0.00000000     5.50899976     0.00000000
        0.00000000     0.00000000     9.26300011
PRIMCOORD
23 1
Ti      1.93634798     3.16825198     3.47365002    -0.35433183     0.54685379     1.53656407
Ti      3.34250502     2.30525702     5.89420598     2.29792816     0.47764455    -2.03931519
Ti      4.30156698     2.07068402     1.51503701     0.53534321     0.31551793    -1.49095628
Ti      0.74190502     3.47869101     7.81858498    -1.76636652    -0.55976588     1.11485543
Ti      1.98088502     0.09446502     1.38721101     1.92528467     0.99675716    -0.86664284
Ti      3.15130799     5.19503101     7.92321401    -0.13449137     0.63292433     2.25475289
Ti      0.86708698     0.60477800     5.87599598    -2.51221657    -0.87249570    -2.15058024
Ti      4.66936099     4.91005901     3.25426302    -1.41357787     1.09464835     2.96437609
O       1.80336299     1.80495798     4.85282902    -0.28491613     0.39149148    -1.36915022
O       3.50949701     3.49542000     4.47476802     0.68363087     0.97792125    -0.11337026
O       4.76999701     2.82581101     9.15054798     0.37308880     0.08218072     0.47792815
O       3.53074200     0.68658198     0.24712599    -0.93191957    -0.23321817     0.55247320
O       1.47742499     4.76796502     9.12885002     0.81604556    -0.53061084    -0.66332609
O       4.33642198     0.77529097     4.79234602     0.08303818    -0.29348845    -0.26418223
O       0.94406200     4.65611701     4.41192198     1.02457933     0.13720620     0.99594289
O       0.25830898     3.45110299     2.43756398     0.48600630    -1.85310606    -0.85885162
O       0.01188098     2.19402598     6.54217400    -0.41616097     0.46542487     1.27041905
O       2.62094300     1.85295198     2.40439701     0.57232983    -1.56131506    -1.86034861
O       2.44741398     3.72958098     6.99026801     0.28691285    -1.22548258    -0.49217566
O       0.31458799     0.61502001     1.98088201    -1.16396660     0.87558899     0.61221511
O       4.83678998     4.83139200     7.30764498     0.78663008     1.05848860    -1.33934110
O       2.46525498     1.06460699     6.98704998    -0.91935587    -0.90030810     1.29708474
O       2.99207798     4.36853002     2.22995198     0.02648546    -0.02285737     0.43162925
