# total energy = -19517.22810332 eV

CRYSTAL
PRIMVEC
        5.17600016     0.00000000     0.00000000
        0.00000000     5.50899976     0.00000000
        0.00000000     0.00000000     9.26300011
PRIMCOORD
23 1
Ti      1.83429001     3.17691599     3.38002999    -0.10376616     0.93464674     1.69782192
Ti      3.45418503     2.26194900     5.83635902     0.30442207    -0.01949385    -1.68802858
Ti      4.24620001     2.20903598     1.49662698     0.87919908    -1.24742618    -2.23677753
Ti      0.83280497     3.46068401     7.76478898    -0.81142760    -0.02355234     2.52808054
Ti      1.92667499     0.13610402     1.52492400    -0.01126735     0.52384575    -2.91672016
Ti      3.27322397     5.10609299     7.92659799    -0.29450686     1.60158832     3.38886615
Ti      0.81023699     0.60918901     5.92650997    -0.62893398    -1.27577826    -2.95722148
Ti      4.43726602     4.91452601     3.38217601     1.07467730     0.81996367     1.56116696
O       1.82744002     1.96327702     4.81567199    -0.82206915    -0.29335989    -0.04936648
O       3.66658899     3.62987103     4.53499199    -0.79595881    -0.41830321     0.29366174
O       4.94550097     3.03275498     0.03115901    -0.10550217     0.01655123    -0.72827527
O       3.74753401     0.67088197     0.23251599    -1.34582079    -0.25312494    -0.58869980
O       1.66537801     4.82554300     9.03862599    -0.01641419    -0.21380299     0.22556425
O       4.30186401     0.84835300     4.78248602    -0.15044276     0.07627669    -0.28798166
O       0.97628599     4.81106598     4.27031298     1.25031533    -0.32360508     0.74569424
O       0.16781698     3.39626102     2.52488500     0.69485220    -0.85251025    -0.01616093
O       5.15729999     1.94674700     6.85370101    -0.56425708     1.32848487     0.58719519
O       2.43067298     1.92805302     2.05978202     0.25364173    -0.88949275    -0.03587693
O       2.64339499     3.49462099     7.12338498    -0.51506980    -1.10955587    -0.03885941
O       0.17531902     0.62002698     2.05021301    -0.09307783     0.49369596     0.48241318
O       4.91622303     4.73415298     7.05553499     1.08874998     0.46814947    -0.93158301
O       2.42235501     0.80415997     6.90155700     0.49228699     0.44822624    -0.21931390
O       2.97791402     4.27212700     2.11372698     0.22036933     0.20857645     1.18440045
