# total energy = -4989.28514724 eV

CRYSTAL
PRIMVEC
        4.03637289     0.00000000     0.00000000
        0.40262135     4.01624230     0.00000000
       -2.21953292    -2.00815354     5.15777734
PRIMCOORD
6 1
Ti      0.30181134     3.01233450     1.28944408     0.00041549    -0.00041549     0.00000000
Ti      1.91764962    -1.00424606     3.86833264    -0.00041549     0.00041549     0.00000000
O       0.10069789     1.00405422     0.84015969    -0.00052682    -0.00140485    -0.79262100
O       2.11876296     1.00403411     4.31761714     0.00052682     0.00140485     0.79262100
O      -0.10067555    -1.00403401     3.41904825    -0.00140485    -0.00052682    -0.79262100
O       2.32013634     3.01212229     1.73872858     0.00140485     0.00052682     0.79262100
