# total energy = -4985.31768487 eV

CRYSTAL
PRIMVEC
        3.26905669     0.00000000     0.00000000
        2.19388926     4.62849672     0.00000000
       -0.00001433    -0.00006883     5.26366509
PRIMCOORD
6 1
Ti      2.73146570     2.31421397     2.63183243     0.00000000     0.00000000     0.00000000
Ti      0.00000000     0.00000000     0.00000000     0.00000000     0.00000000     0.00000000
O       2.06208218     0.90201249     1.02581077    -0.14620018     0.51804251    -0.01340574
O       3.40084916     3.72641547     4.23785409     0.14620018    -0.51804251     0.01340574
O       0.66937752     1.41217371     3.65764429     0.14427288    -0.51718016    -0.01399118
O       1.52449727     3.21625410     1.60602057    -0.14427288     0.51718016     0.01399118
