# total energy = -19074.16195142 eV

CRYSTAL
PRIMVEC
        5.17600016     0.00000000     0.00000000
        0.00000000     5.50899976     0.00000000
        0.00000000     0.00000000     9.26300011
PRIMCOORD
22 1
Ti      1.89997498     3.47024402     3.16754199    -0.89999417     0.48618319    -0.15638252
Ti      3.36196499     2.14091002     5.80971902     0.27531023     0.38037428     0.38038920
Ti      4.54534402     2.23530302     1.24467501     0.05959845     0.17451909    -2.10332103
Ti      0.77165299     3.08266598     7.88699199     0.42646210     0.04855299     0.83455494
Ti      1.91318500     0.69184999     1.33404198     0.14743328    -0.18202877    -3.36546344
Ti      3.31280098     4.95112999     8.15256700    -0.42287515     0.10269761     1.67999414
Ti      0.80679602     0.09487301     6.26519601     1.03888753     0.43711932     0.02756661
Ti      4.40549401     5.20112200     3.46662201    -1.56399672    -1.36557767     0.25668669
O       3.32084400     3.56443598     4.25255400     0.31222511    -0.84604958     2.72591904
O       1.03576800     2.05992198     0.16852602    -0.03895506    -1.27725099     0.24578316
O       4.42337602     3.57005198     8.93411502    -0.80806794    -0.00935625    -0.04855196
O       3.61206802     0.74336799     0.28115801     0.50658567     0.40777248    -0.84600278
O       1.82963002     4.65067500     9.12649301    -1.37061832    -0.11440128    -0.07591313
O       3.34051500     0.84095002     4.51192002     0.87167449     0.07842845     0.44683784
O       0.71867700     4.83582100     4.56970702     0.37374469    -0.25919069     0.37865242
O       5.14083099     3.47140001     2.40720800     1.24221893     0.70252540     1.11602734
O       0.02914999     1.84588402     6.38451998    -0.90822119     0.30554564     0.14394429
O       2.78589401     2.16006100     2.13719700    -0.32985440     0.25216541     0.41702229
O       2.38875098     3.51267499     6.96107298    -0.03543753     0.56826466    -1.16867661
O       0.20544698     0.68275301     2.21419102     0.10697593     0.53825216     0.37764249
O       2.33383598     0.91401802     7.13579800     0.56065342    -0.35284882    -1.70933044
O       2.67558198     4.86201898     2.34378002     0.45625014    -0.07569639     0.44262149
