# total energy = -19518.32029080 eV

CRYSTAL
PRIMVEC
        5.93400000     0.00000000     0.00000000
        0.00000000     9.29699974     0.00000000
        0.00000000     0.00000000     4.64899994
PRIMCOORD
23 1
Ti      4.55170198     7.05823501     2.30135699    -0.09076692     0.56284374    -0.25818410
Ti      4.38740599     2.29863998     2.35091602     1.06753708    -0.54272948    -0.18787803
Ti      1.45180900     7.04918899     2.24006900     0.30857466     0.25087960    -0.39631642
Ti      1.42994202     2.28874601     2.31278499    -0.74140050     0.31940081     0.04080111
Ti      3.00894301     4.47546500     0.12133299    -0.68014728    -0.08382211     0.08213264
Ti      2.91583698     9.25378898     4.60795802     0.80891718     0.34545072     0.54705434
Ti      0.00600500     4.68532601     0.04748302     0.47598259    -0.81533182    -0.09258417
Ti      5.92718102     0.02346102     4.64114902    -0.44288143     1.09444549    -0.00985221
O       4.38768502     5.55881201     0.95464698    -0.21132445     0.36836389    -0.11316406
O       4.49094200     0.89958598     0.90880901    -0.11412771     0.22009243    -0.06985047
O       1.55312300     5.54528502     0.90567898     0.09937240     0.50670317     0.07080152
O       1.49731100     0.87585698     0.86428599     0.23834804     0.31703693     0.19119090
O       4.54803203     8.31281499     3.85465901    -1.13860703    -0.42165516    -1.08138145
O       4.45214500     3.74926802     3.74609100    -0.37110134     0.38331614    -0.52461657
O       1.55234802     8.36403199     3.70766701    -0.12323585    -0.31854514     0.13644644
O       1.35527998     3.73225698     3.67122702     1.09781826     0.79442823     0.34529028
O       2.88809301     1.37282702     3.17587499     0.66868145    -0.00317043     0.50591873
O       0.07015800     6.26755900     3.19655302    -0.29992521    -1.84559201     0.95647850
O       0.00358798     1.46920502     3.21373800    -0.36410768    -0.77251394     0.19173135
O       3.01479503     7.96583098     1.54878201     0.15378159    -0.43246074    -0.36546240
O       2.96696899     3.11526901     1.34042698    -0.17528374     0.55051890    -0.03003692
O       0.06214499     7.96719801     1.38878902    -0.25320979    -0.45654119     0.07520994
O       5.88654302     3.28047899     1.37767402     0.08710541    -0.02111879    -0.01372918
