# total energy = -4989.84972466 eV

CRYSTAL
PRIMVEC
        2.99002087     0.00000000     0.00000000
        0.69880686     4.63250389     0.00000000
       -0.00000439    -0.00006081     4.69822078
PRIMCOORD
6 1
Ti      1.84441139     2.31622145     2.34911034     0.00000000     0.00000000     0.00000000
Ti      0.00000000     0.00000000     0.00000000     0.00000000     0.00000000     0.00000000
O       1.63119661     0.90279487     0.91561400    -0.66286021     0.19097519     0.15240374
O       2.05762618     3.72964803     3.78260662     0.66286021    -0.19097519    -0.15240374
O       0.21321288     1.41340194     3.26472534     0.66283707    -0.19085974     0.15241582
O       0.48558916     3.21904106     1.43349528    -0.66283707     0.19085974    -0.15241582
