# total energy = -4983.41989789 eV

CRYSTAL
PRIMVEC
        4.20397361     0.00000000     0.00000000
        0.00000000     3.54684422     0.00000000
        0.00000000    -0.00008012     5.56804397
PRIMCOORD
6 1
Ti      2.10198669     1.77338199     2.78402216     0.00000000     0.00000000     0.00000000
Ti      0.00000000     0.00000000     0.00000000     0.00000000     0.00000000     0.00000000
O       2.10198669     0.69121207     1.08512982     0.00000000     0.31932265     1.84176467
O       2.10198669     2.85555197     4.48291444     0.00000000    -0.31932265    -1.84176467
O       0.00000000     1.08213799     3.86915304    -0.00000000    -0.31964326     1.84298748
O       0.00000000     2.46462599     1.69889128    -0.00000000     0.31964326    -1.84298748
