# total energy = -39040.38434560 eV

CRYSTAL
PRIMVEC
        7.60629642    -0.00000847    -0.00005503
       -0.00000847     7.60629642    -0.00005503
       -3.80314186    -3.80314186     9.70738094
PRIMCOORD
46 1
Ti      1.90150105     4.71051303     6.08604259     0.00014038    -0.03398974    -0.09301046
Ti      3.83757889     6.66440176     1.18614029    -0.00970695    -0.02784351     0.03198582
Ti      1.90157036     0.98770425     5.93604770    -0.00042526    -0.04175499    -0.03296001
Ti      3.79709951     2.84512929     1.24171042    -0.02484998     0.01925988     0.03329426
Ti     -1.90163203     4.76956972     6.06423414    -0.00020749     0.07288669     0.00526819
Ti     -0.03452459     6.66437644     1.18622014     0.00961027    -0.02795459     0.03187141
Ti     -1.90176388     0.94287333     6.12446696     0.00022137    -0.00346276     0.00098653
Ti      0.00573516     2.84506079     1.24179834     0.02498316     0.01946711     0.03324258
Ti      3.88363538     0.94113337     8.54642803     0.04425076     0.02159573     0.00303827
Ti      5.70491983     2.84167123     3.65510007    -0.00023654    -0.07460444     0.02491477
Ti      3.79141071    -2.83961147     8.48730794    -0.05639151     0.00070243     0.04406512
Ti      5.70472514    -0.93815095     3.65100582    -0.00002494     0.04889597    -0.06335406
Ti     -0.08058222     0.94118877     8.54633611    -0.04358330     0.02169086     0.00309844
Ti      1.90177261     2.91909031     3.68775956    -0.00044609    -0.04084045    -0.02628131
Ti      0.01209131    -2.83954953     8.48734170     0.05626193     0.00063841     0.04384555
Ti      1.90155655    -0.97149031     3.47398130    -0.00004011    -0.02506801     0.01091794
O       1.90165288     2.85257958     5.65379023     0.00003060     0.03084039    -0.01344250
O       3.83985475     4.74869185     0.80906096     0.03029918     0.01208496    -0.04205349
O       3.78316844     0.95325642     0.76358615    -0.02616176    -0.01247603     0.01568168
O      -1.90153984     2.83261071     5.71816352     0.00002108    -0.04220365     0.05315835
O      -0.03677610     4.74866822     0.80916058    -0.03041102     0.01198597    -0.04228232
O      -1.90157906    -0.93709786     5.66326967     0.00009950     0.03526501     0.02082183
O       0.02006519     0.95322899     0.76365269     0.02604451    -0.01241946     0.01562151
O       3.66129840     2.82842876     8.86207574     0.00022780    -0.02868735    -0.02547784
O       5.70471307     4.75000117     4.09197057     0.00001208    -0.00121099    -0.00060472
O       3.70031123    -0.93138207     8.91966666     0.00780510     0.02291599    -0.06061275
O       5.70470238     0.95357099     4.09314359    -0.00004037    -0.01108814     0.04592403
O       0.14187954     2.82844877     8.86204964    -0.00015067    -0.02884727    -0.02530404
O       1.90144032     4.83458480     4.07463830     0.00005888     0.04859027     0.00701526
O       0.10287926    -0.93133285     8.91967340    -0.00774519     0.02307489    -0.06056621
O       1.90148965     0.85670421     4.04795136     0.00010773     0.05103873     0.05416802
O       3.78888073     2.85145005     3.25411593    -0.04997249     0.00954677     0.02450725
O       1.90162895    -2.81336576     8.07040560    -0.00000977     0.01396161    -0.05375536
O       3.82071376    -0.95352074     3.17701501    -0.03485594    -0.00148327     0.03648474
O      -1.90161868     0.98399114     8.10442128     0.00045329     0.02695314     0.00108578
O       0.01425641     2.85140809     3.25413766     0.04990230     0.00947349     0.02448385
O      -1.90153527    -2.87708927     8.08414075    -0.00002365    -0.00802853     0.00405232
O      -0.01761522    -0.95350142     3.17706260     0.03492459    -0.00150847     0.03651971
O       3.78756848     4.87129980     6.46915225    -0.03508014    -0.01855977    -0.03442091
O       5.70469674     6.68218674     1.62359501    -0.00011776     0.02976362    -0.01183119
O       3.67654007     0.80397262     6.53963213    -0.05839260    -0.02981555    -0.01635968
O       5.70469314     2.82454232     1.68929623     0.00005836    -0.03123017    -0.02532229
O       0.01559638     4.87130559     6.46919651     0.03513619    -0.01850012    -0.03454613
O       1.90156621     6.63097598     1.52981723     0.00002623     0.01344327     0.01726111
O       0.12671948     0.80394595     6.53976231     0.05815992    -0.02982609    -0.01614962
O       1.90156095     2.87298563     1.62359486     0.00003805     0.00732790     0.05502137
