# total energy = -4929.64780786 eV

CRYSTAL
PRIMVEC
        5.29778535     0.00000000     0.00000000
       -0.00000692     2.27047959     0.00000000
       -2.64892306    -1.13532193     5.74927915
PRIMCOORD
6 1
Ti     -0.00022637     1.70293019     1.43731974    -0.03348323    -0.02746016    61.54684733
Ti      2.64908148    -0.56777248     4.31195931     0.03348323     0.02746016   -61.54684733
O       0.00005629     0.56760598     0.93651059     0.03259697     0.02652865   -54.31758879
O       2.64879866     0.56755167     4.81276851    -0.03259697    -0.02652865    54.31758879
O      -0.00002215    -0.56764708     3.81115016    -0.00134777     0.00033244    -0.87494493
O       2.64887704     1.70280468     1.93812894     0.00134777    -0.00033244     0.87494493
