# total energy = -4986.32967547 eV

CRYSTAL
PRIMVEC
        3.78298662     0.00000000     0.00000000
        1.78022244     3.33793287     0.00000000
       -2.78164008    -1.66898776     4.99603713
PRIMCOORD
6 1
Ti      1.33507758     2.50357820     1.24900895     0.00061192    -0.00061192     0.00000000
Ti      1.44649128    -0.83463322     3.74702757    -0.00061192     0.00061192     0.00000000
O       0.44509481     0.83447897     0.81381352     0.00011313     0.00005682    -2.87892621
O       2.33647388     0.83446601     4.18222305    -0.00011313    -0.00005682     2.87892621
O      -0.44505886    -0.83445735     3.31183209     0.00005682     0.00011313    -2.87892621
O       3.22662748     2.50340224     1.68420443    -0.00005682    -0.00011313     2.87892621
