# total energy = -19908.43767155 eV

CRYSTAL
PRIMVEC
        6.59441144     0.00000000     0.00000000
        2.05923524     6.70955738     0.00000000
        0.00000000     0.00000000    11.94062250
PRIMCOORD
24 1
Ti      3.61045784     3.97607752     4.42988578    -0.32092342    -1.90775900     0.62079489
Ti      5.04318873     2.73348001     7.51073678     0.32092342     1.90775900    -0.62079489
Ti      6.52618890     2.73348232     1.54037779     0.15710860    -0.66923295    -0.13179454
Ti      2.12745778     3.97607547    10.40024491    -0.15710860     0.66923295     0.13179454
Ti      2.58084037     0.62129894     1.54042567    -0.32092342    -1.90775900    -0.62079489
Ti      6.07280623     6.08825878    10.40019704     0.32092342     1.90775900     0.62079489
Ti      1.09784018     0.62129644     7.51068891    -0.15710860     0.66923295    -0.13179454
Ti      7.55580642     6.08826129     4.42993366     0.15710860    -0.66923295     0.13179454
O       2.81226456     2.36254926     6.09320827     1.80695706     2.01983728    -0.65388680
O       5.84138202     4.34700833     5.84741430    -1.80695706    -2.01983728     0.65388680
O       1.93517145     2.36257633     0.12293542    -0.62690280    -0.13039817     1.13934674
O       6.71847520     4.34698132    11.81768681     0.62690280     0.13039817    -1.13934674
O       4.81176452     0.99222956     0.12289668    -1.80695706    -2.01983728    -0.65388680
O       3.84188206     5.71732803    11.81772555     1.80695706     2.01983728     0.65388680
O       5.68885771     0.99220255     6.09324701     0.62690280     0.13039817     1.13934674
O       2.96478882     5.71735512     5.84737556    -0.62690280    -0.13039817    -1.13934674
O       1.49213383     4.08113319     3.22546003     0.55071636     1.97902023     2.00757337
O       7.16151275     2.62842440     8.71516254    -0.55071636    -1.97902023    -2.00757337
O       4.34348144     2.62836184     2.74488922     0.60385723     1.84128696     1.11928081
O       4.31016514     4.08119576     9.19573314    -0.60385723    -1.84128696    -1.11928081
O       0.46251627     0.72635443     2.74485109     0.55071636     1.97902023    -2.00757337
O       8.19113025     5.98320317     9.19577128    -0.55071636    -1.97902023     2.00757337
O       3.28054764     0.72641698     8.71520061    -0.60385723    -1.84128696     1.11928081
O       5.37309894     5.98314061     3.22542189     0.60385723     1.84128696    -1.11928081
