# total energy = -4974.47029938 eV

CRYSTAL
PRIMVEC
        5.41378125     0.00000000     0.00000000
       -0.00000767     2.91511334     0.00000000
       -2.70692068    -1.45762226     5.84039658
PRIMCOORD
6 1
Ti     -0.00023172     2.18643545     1.46009891    -0.00759556    -0.01071559    15.61004263
Ti      2.70708421    -0.72894420     4.38029720     0.00759556     0.01071559   -15.61004263
O       0.00005747     0.72876692     0.95135281     0.00629123     0.01032067    -9.82814858
O       2.70679491     0.72872422     4.88904342    -0.00629123    -0.01032067     9.82814858
O      -0.00002211    -0.72878668     3.87155110    -0.00212887    -0.00019129    -2.21540626
O       2.70687437     2.18627781     1.96884513     0.00212887     0.00019129     2.21540626
