# total energy = -39033.96121651 eV

CRYSTAL
PRIMVEC
        7.60600008     0.00000000     0.00000000
        0.00000000     7.60600008     0.00000000
       -3.79573973    -3.79573973     9.71340985
PRIMCOORD
46 1
Ti      1.81375444     4.92932646     5.95456865     0.55941312    -2.17284189    -0.22950318
Ti      3.84942497     6.63564898     1.20791100    -0.99937454    -0.17359401     0.00797119
Ti      1.86489942     0.99118545     6.12247860     0.04966782    -0.99130333     0.85415190
Ti      4.05904801     2.76784700     1.17826400    -0.32105454    -1.10386139     2.44959142
Ti     -1.94549455     4.61131845     6.06067165    -0.17990504     2.14785178    -0.06677209
Ti     -0.05788998     6.71227702     1.23702898     1.91027328    -2.80168407     1.64737120
Ti     -2.03794557     0.96896942     6.08643263     0.00339231    -1.33416829     1.50425532
Ti      0.22359602     2.71465802     1.21602498    -0.07064546     1.78554850    -0.74571918
Ti      3.51855245     1.03665945     8.61819863     2.89233066    -1.67889859     0.63328788
Ti      5.86023201     2.85970900     3.56016801    -0.66992380     0.89375976     0.48287649
Ti      3.63213844    -2.91002656     8.43085465     0.49769325     0.85098018    -1.17682212
Ti      5.65650199    -0.93124702     3.72198898     0.24915901    -1.21105920     0.30232585
Ti     -0.17170458     0.96034447     8.52086061    -1.91604078     1.34278766    -0.69579477
Ti      2.07816902     2.93723500     3.62305797     0.58824240     0.63314647     0.23606207
Ti     -0.03334653    -2.84593457     8.38231560    -1.00878864    -1.62653908     1.78090638
Ti      1.92125400    -0.79290803     3.60101399    -0.32811531    -1.56263043    -0.93424950
O       1.84543745    -0.95067455     5.61382364    -0.60281233     2.56105341    -0.04761916
O       3.93458198     0.85708500     0.87388199    -0.15835070     1.62858491    -0.44739963
O      -1.88425757     2.86449747     5.50082561    -0.38462149    -0.32697065     1.08714432
O       0.14968599     4.70194900     0.87421399    -0.77557973     0.20909041    -1.02386354
O      -1.91943156    -1.04538855     5.72683161     0.22726581     1.01622119    -0.68538565
O       0.00362502     0.79743699     0.75531998     0.31252336     1.85933765    -0.71360223
O       3.69343643     2.83930847     8.47062660     0.29221807     0.00217181     1.95149682
O       5.88856802     4.86390301     3.91264001     0.34079985    -2.13519809     1.04257835
O       3.70642244    -1.11852052     8.94805963    -0.07245988     0.67763146     0.61413521
O       5.50773402     0.97400899     4.19069599    -0.12152761    -0.56552721    -1.32386948
O      -0.10676257     2.85973445     8.77901163    -0.35384178    -0.57491482     1.56118805
O       1.81866097     4.84664601     3.97160798    -0.33186321    -1.27424537     1.36466827
O       0.20226647    -0.82423754     9.12081865    -0.60673763    -0.41045132    -1.97621310
O       2.19155001     1.03485400     4.14683201    -0.05291949     0.65437274    -0.03507037
O       1.78832144     1.10164347     8.12685465    -1.26202517    -0.23440653    -0.54512575
O       3.99260298     3.13411598     3.29395201    -0.03367684    -0.67992180    -0.41991221
O       1.71016747    -3.13069754     8.16383763     2.98367557     1.34626380    -0.95474352
O       3.77201798     6.11927999     3.10015200     0.01448509     2.18479007    -0.06744777
O      -2.11469654     0.88331346     8.22021961     2.42767379     0.11998649     0.00193527
O       0.09839802     2.73941801     3.23659501     0.96582086    -0.41069043    -0.16774989
O      -1.90970153    -2.90268856     7.98156861    -0.56494202     0.31198626     0.03498733
O      -0.05217698    -0.78382099     3.30541901     1.91278679     0.60670935    -0.57487728
O       3.73966144     4.82633243     6.38045362    -0.87318964    -0.73304518     0.67748388
O       5.83595801     6.55081102     1.72872698    -2.83224293     0.10197025    -1.02221469
O       3.75054244     0.60397847     6.74162863    -1.56836297     1.10675851    -2.19276743
O       5.92935801     2.73190798     1.53938302    -1.20327235     0.38356040     0.54493626
O       0.04082047     4.46056146     6.44325362    -0.41496978     0.90209759    -0.35735596
O       1.88794700     6.77254798     1.52091199     0.79627712    -0.24651283     1.23658898
O      -0.19175754     1.02562647     6.58669463     1.45395526    -0.17095297    -1.09379808
O       2.14020299     3.08250299     1.79542501    -0.77041001    -0.90724288    -2.51806635
