# total energy = -19517.28089628 eV

CRYSTAL
PRIMVEC
        5.93400000     0.00000000     0.00000000
        0.00000000     9.29699974     0.00000000
        0.00000000     0.00000000     4.64899994
PRIMCOORD
23 1
Ti      4.58946200     7.23953902     2.17520600    -0.48929551    -0.83903021     0.49079832
Ti      4.53022500     2.30790000     2.30923099    -0.19860982    -1.14192941    -0.33836399
Ti      1.31266200     7.01740501     2.15441298    -1.29563079     0.69580068     0.44369518
Ti      1.50652699     2.28058202     2.40340501     0.35392174    -0.59359338     0.50490957
Ti      3.00190998     4.45481602     0.21607498    -0.54075487     0.19457345     1.03257521
Ti      2.95052200     9.24902200     0.04248399    -0.06518469     0.70569609    -0.62987191
Ti      5.88264801     4.56339298     0.05892299     0.97884968     1.25281342    -0.02917560
Ti      0.04019699     0.05348199     4.54355699    -0.24965215     0.85009752    -1.26315800
O       4.41855902     5.52258099     1.06957401    -0.44329872     0.07733855    -0.81796129
O       4.48181999     0.96359902     0.76795499    -0.97011666     0.20456784     1.41146160
O       1.42114699     5.69733299     0.86060202     0.82061236    -1.17352751    -0.14983186
O       1.38257701     0.93140901     0.78766600     1.87115650     0.12433577     1.11723138
O       4.44106398     8.53382301     3.55633301    -0.74015891    -0.84452748     0.53444384
O       4.46595103     3.58762998     4.04957500    -0.78827147    -0.06864874    -2.04973305
O       1.46408899     8.31089000     3.75359600     0.75068681    -0.25548573    -0.55111051
O       1.52203400     3.71719501     3.88392199     0.21660729     0.43904431    -0.97743248
O       2.93643800     1.35495099     3.21585100     0.57963845    -0.06036464    -0.10744798
O       5.79318599     6.13243999     3.20131699     0.15342318    -0.39394534     0.25239141
O       5.93387797     1.48319101     3.25778100     0.06105267    -0.08534009    -0.52891520
O       2.87914901     7.75885399     1.50536301     1.01718330     0.64015993    -0.49037229
O       2.99817002     3.24905798     1.57405599    -0.33439626     0.49622721     0.01653708
O       5.88679501     8.06379302     1.22435799     0.75734109    -1.90146211     1.80013849
O       0.16741702     3.06993900     1.35864402    -1.44510347     1.67719935     0.32919234
