# total energy = -4986.69198909 eV

CRYSTAL
PRIMVEC
        3.23779185     0.00000000     0.00000000
        1.72283507     4.77163829     0.00000000
       -0.00001119    -0.00006722     5.15506581
PRIMCOORD
6 1
Ti      2.48030786     2.38578548     2.57753291     0.00000000     0.00000000     0.00000000
Ti      0.00000000     0.00000000     0.00000000     0.00000000     0.00000000     0.00000000
O       1.95464889     0.92990892     1.00464641     0.24286135     0.14050416    -0.26633502
O       3.00596682     3.84166205     4.15041946    -0.24286135    -0.14050416     0.26633502
O       0.52565426     1.45584940     3.58218035    -0.24264769    -0.14052395    -0.26572335
O       1.19716972     3.31572155     1.57288552     0.24264769     0.14052395     0.26572335
