# total energy = -39034.00501203 eV

CRYSTAL
PRIMVEC
        7.60600008     0.00000000     0.00000000
        0.00000000     7.60600008     0.00000000
       -3.79573973    -3.79573973     9.71340985
PRIMCOORD
46 1
Ti      1.97076943     4.96277946     6.37940363    -1.00535313     0.04983417     0.02446894
Ti      3.91245797     6.64994999     1.21302502     0.46262262     0.01015303    -0.47867017
Ti      1.72582344     1.02743044     5.94871060     0.86771447    -1.52681675    -0.85436607
Ti      3.81425099     2.74547799     1.17416002     0.06407011    -0.51452833    -0.90003145
Ti     -1.95195755     4.81970247     6.19916665     0.54350904     0.70575342     1.27823161
Ti      0.19605901     6.49562100     1.18630998    -0.77831178    -0.84656560     0.90833817
Ti     -2.12231256     0.96771945     5.93513260     0.16182966    -0.08080337     1.03929942
Ti     -0.17684702     2.77741601     1.14454398     0.72130243     0.47609135    -0.09994936
Ti      3.53199345     0.90030746     8.46080962     1.08838462    -2.12183118     0.42904323
Ti      5.70908401     2.97644698     3.69021300     1.51571241    -2.22094082    -1.24520012
Ti      3.94933544    -3.01882355     8.73240461    -1.54439771     0.73332672    -1.10861613
Ti      5.82455900    -0.99608198     3.56607500     0.99479541     1.98044822    -0.84207696
Ti     -0.09656257     0.79369745     8.22753062    -1.72820697     1.39762803     1.35474175
Ti      1.99572903     3.08845401     3.29267801    -2.19224035    -3.15521115     0.85768074
Ti      0.00515546    -2.89027856     8.66911564     1.34487823    -0.56751467    -0.27667754
Ti      2.04781499    -0.82772302     3.77936799    -0.82390286     1.88870352    -1.46858227
O       2.08035346    -0.89169256     5.70472560    -0.42074113     0.75605708     0.15590764
O       3.78010101     0.87569098     0.80702298    -0.01839934     0.95536752     0.89328873
O      -1.92121055     3.01190143     5.68922764    -0.33265279     0.41940699    -0.22479138
O       7.27224101     4.62111299     0.80092199     1.38449843     1.62160925    -0.36423598
O       5.42201847    -0.91228756     5.51460661     0.27348192    -1.32314211    -0.31253853
O       0.19368401     0.79597598     0.85011198    -0.12227271     0.51337827     0.02028293
O       4.02345047     2.63986845     8.82750961     0.36061741     1.82153625     1.19006588
O       5.91825100     4.76957399     3.77751402    -0.73215224     1.05620546     1.27532498
O       3.48601842    -1.00785056     8.89923763     0.79754878    -0.56411361    -0.06240635
O       5.99688700     1.08760599     4.09796699    -0.83607164    -0.54620896    -0.15533146
O       0.06013443     2.66964647     9.07749565    -0.94026383    -1.05655153    -1.53090455
O       1.61448100     4.28544898     4.60646902     1.27211701     0.86364519     0.34713814
O       0.00934744    -0.90669553     8.81118661     0.56615096    -0.74644912     1.51233630
O       1.64303302     1.07608400     3.87615700     1.57942849     0.59587549     1.28793084
O       1.74108147     0.95647047     7.96844861     0.34615777     0.33417309     0.07997702
O       3.85493900     2.67423999     3.13721500    -0.77274483     1.02566357     0.63908932
O       1.96707948    -3.09967855     8.42751162     0.12036264     0.23335984    -1.16843338
O       3.98377001    -0.51937699     3.00371300    -0.78473157    -1.06691848     3.36522536
O      -1.97194055     0.56128243     7.80044865    -0.56232232     0.71119877     1.14602492
O      -0.00030698     2.84710601     3.02295002     0.11845617     0.48926826     0.64092920
O      -1.83782555    -2.67305257     8.26127964    -1.00255731    -0.73851726    -1.09708164
O       0.16770902    -0.90168999     3.22277100    -0.47357372    -0.93909192     0.29735693
O       3.79480245     4.86271643     6.71760462     1.34935761    -0.73440401    -0.94630464
O       5.88628600     6.66304898     1.55428100    -0.92202570    -0.29493572     0.42258204
O       3.62462746     1.21566043     6.60605162    -0.05925315     0.47104684    -2.90109761
O       5.66131999     2.85954601     1.57852103    -1.08525482    -0.23008888     0.07250025
O       0.11852745     4.86018945     6.80233865    -1.07316343    -0.06511887    -2.31356304
O       1.99730201     6.57945898     1.63796398     0.67302070    -1.20647826     0.01237909
O      -0.13614556     0.90232347     6.35605664     1.00636666     0.61087917    -1.21006136
O       1.91952703     2.92430402     1.38315598     0.59820954     0.82562113     0.31077707
