# total energy = -19959.53513074 eV

CRYSTAL
PRIMVEC
        5.93400000     0.00000000     0.00000000
        0.00000000     9.29699974     0.00000000
        0.00000000     0.00000000     4.64899994
PRIMCOORD
24 1
Ti      4.50560598     6.75785701     2.15548801    -1.75207479     1.17782742     2.02471698
Ti      4.43865199     2.60769500     2.27869799     2.51435008    -2.72873851    -0.40492987
Ti      1.50888903     6.90342902     2.13819100     1.84497083    -0.08915175     1.61094765
Ti      1.48774199     2.30250599     2.45631998    -1.46302612    -1.05363410     0.30964321
Ti      3.01514301     4.59824100     0.07324998    -2.50040261     0.00949123    -1.27543502
Ti      2.94325201     0.07864399     0.13562099     0.63144672     0.14179176    -0.92560134
Ti      5.92849000     4.65429002     4.47671301     2.04391619    -1.01897356     0.61548299
Ti      5.90733799     9.21379398     0.18493300    -0.19654368     0.71864057    -1.81154622
O       4.43948999     5.52112797     0.81786402     0.28083527     0.43745305     0.04711471
O       4.39687000     0.95597902     1.20751602    -0.08568693    -1.21471788    -1.38592873
O       1.45805901     5.55230001     0.76740502     0.44519748     0.58357944     0.46814947
O       1.41273900     0.88068001     1.11275001     0.56933810    -0.37837962    -0.62102629
O       4.47603000     8.52805800     3.83174601    -0.29613566     0.00221732     0.41191196
O       4.42823699     3.84829502     3.69139698    -0.87702033    -0.05067878    -0.07693412
O       1.42287301     8.33530799     3.84949800     0.02203925     0.94869011     0.23436000
O       1.45069599     3.77439600     3.71341102     0.96604455     0.58513727     0.05475398
O       2.96743202     6.06431599     3.17836800     0.45473910    -0.29094434    -0.10605702
O       2.90118702     1.55712401     3.42753000     0.13732139    -0.15215126    -0.17073134
O       0.00679199     5.85675700     2.99525002     0.00402172     0.93747315     0.39364658
O       5.89257199     1.67348897     3.29842001     0.27936872    -0.49858748     0.10101354
O       3.01982300     7.71307799     1.35014601    -0.23033725     1.01144485    -0.10966376
O       2.99947101     3.12174498     1.26028102    -1.02198586     1.32135622     0.07221126
O       0.04053598     7.81929498     1.46963497    -0.99861915     0.32591650    -0.05727263
O       0.01729902     3.39022200     1.33730701    -0.77175727    -0.72506139     0.60117351
