# total energy = -39024.64177553 eV

CRYSTAL
PRIMVEC
        7.60600008     0.00000000     0.00000000
        0.00000000     7.60600008     0.00000000
       -3.79573973    -3.79573973     9.71340985
PRIMCOORD
46 1
Ti      1.86451545     4.37222447     6.14562661     1.94009912    -0.86365881    -1.93259175
Ti      3.93464701    -0.36901202     1.05156701    -0.07873055     2.36060859     1.71053320
Ti      2.01776846    -0.23733356     6.17490863    -1.29071303     3.05767297     0.74135319
Ti      3.80255601     3.39031502     1.42531299     1.33512732     1.36956803    -4.14917017
Ti     -1.90545155     4.47407347     6.32991862    -1.01647393     0.99303677    -2.50724843
Ti      0.01463598     6.78220102     1.29846598     1.11558973     0.98010617    -0.51189063
Ti     -1.80194553     0.78491046     6.09936662    -0.37432396    -2.09998785    -0.68153594
Ti     -0.05496802     3.03628401     1.17894198    -0.25174709     1.92494503     2.30111170
Ti      3.55596047     1.46793446     8.47904163    -0.05665274    -1.28098449     0.59522474
Ti      5.57343101     2.57808700     3.68060198     4.04187748    -0.35550734    -0.93461614
Ti      3.89016347    -2.48533853     8.59888864    -0.66012404     1.20777590    -0.09794441
Ti      5.71506101    -1.35287302     3.65343502     0.16870531     0.86879588     1.64007158
Ti     -0.17738556     1.40991743     8.21333062    -0.13514855    -0.92483104     1.56776956
Ti      2.08567402     2.15937101     3.30448300    -3.74523223    -0.54010079     3.13918983
Ti      0.04375544    -2.13928354     8.43883665     0.68216509     0.30086649     1.40623583
Ti      2.13152998     6.27622898     3.29182498    -0.72635131     1.32985527     0.83485807
O       2.46325247    -1.66007153     5.24328563     0.68810897    -1.61338429    -1.43989621
O       3.80888899     1.58889401     0.93437197     0.50412384    -3.95794508    -2.95612336
O       5.27119745     2.43734046     5.60084662     0.98980335     0.89122131     0.52758208
O       0.38381300     5.07037601     0.64917698    -1.18029234     0.07927228    -0.77940707
O      -1.86876353    -1.27735054     5.67356563    -0.65384129    -0.24872141     0.15695536
O       0.09302502     1.32652301     1.11014402     0.12865188    -2.44942121    -2.00429521
O       3.37058047     3.44781744     9.20024762    -0.45544821    -2.17807511    -1.39457818
O       5.14414702     4.29185102     4.22415100     1.30346520     2.47727450    -0.07350118
O       3.29311347    -0.73656753     9.05632363     1.40166852     0.18583246    -0.92665755
O       6.04258199     0.46636201     3.98262100    -1.48654786     1.30059893     1.31260470
O      -0.37722855     3.14798645     9.14931161     0.49747625    -0.74274956    -3.70047240
O       2.02783500     3.56536601     4.46382802     0.18685551    -0.48020126     0.90653172
O      -0.05215253    -0.43470355     9.14640463    -0.24941407     0.89354790    -0.70332065
O       1.95766801     0.34563302     4.17808998     0.19754410     1.38544228     0.28563527
O       1.60598347     1.39646347     8.40377363     2.19759853     0.50188235    -0.03544061
O       3.83709398     2.53431600     2.92845103     1.06441062    -2.13559353     4.59084189
O       1.81026743    -2.02224054     7.63770563    -0.20254155     0.95399147     1.70782968
O       3.85455900    -0.90080901     2.81618798    -0.65609461    -1.67867876     2.80124082
O      -2.16403856     0.93109044     8.04894764     0.61259615     0.85641961    -1.00850890
O      -0.05449600     2.59009298     3.18151100    -1.66725072     0.33426796     1.25880229
O      -1.77797857    -2.40216054     8.09874660    -1.43140951    -0.36764243     0.35923672
O       0.35504798     6.37472898     3.06962398    -2.51107269    -1.97196384     1.91135417
O       3.72009247     4.36513445     6.84708265     1.51385839    -0.50847569    -0.02707321
O       5.77150999     6.75847499     1.92600802     1.12246795     0.03331637    -4.19403208
O       3.44399947     0.78678243     6.51747163    -0.27141912    -0.47308856     0.41297383
O       5.74758102     3.31041498     1.62821998    -1.63171575     1.00250898     0.62955567
O       0.16605847     4.84065445     6.19879861    -3.36805049    -1.32128269     0.90160857
O       1.86511099    -0.43296499     1.40315602     2.01088804    -0.41762984     1.07675501
O       0.07974146     0.97467644     6.35037063    -0.02160884    -0.70305428     0.21874594
O       1.86414302     3.11334900     1.85242799     0.41912365     2.02417036    -2.93629732
