# total energy = -39482.87297889 eV

CRYSTAL
PRIMVEC
        7.60629642    -0.00000847    -0.00005503
       -0.00000847     7.60629642    -0.00005503
       -3.80314186    -3.80314186     9.70738094
PRIMCOORD
47 1
Ti      1.90152876     4.66029267     6.12148349     0.00008202    -0.05360649    -0.03410338
Ti      3.84944269     6.65572877     1.17638703    -0.10091147    -0.00017432    -0.00312698
Ti      1.90147156     1.04419363     6.12169487     0.00000617     0.05424978    -0.03488654
Ti      3.79536224     2.85254489     1.22657521    -0.06185279    -0.00025762     0.04021593
Ti     -1.90165215     4.76201806     6.05668069     0.00002494     0.04284256     0.04022878
Ti     -0.04639930     6.65568688     1.17645007     0.10060370    -0.00007662    -0.00337740
Ti     -1.90170107     0.94311220     6.05665397     0.00004011    -0.04312539     0.04037431
Ti      0.00744641     2.85253766     1.22665376     0.06173684    -0.00006171     0.04026658
Ti      3.81298405     0.93835713     8.50379719    -0.03818552    -0.01115191     0.00722326
Ti      5.70500777     2.85222915     3.64150676     0.00014732     0.00003677    -0.00566234
Ti      3.81298144    -2.84020865     8.50379764    -0.03789962     0.01164684     0.00707928
Ti      5.70472675    -0.95096436     3.65255235    -0.00000077    -0.00000257    -0.15896854
Ti     -0.00964110     0.93834627     8.50382351     0.03805800    -0.01108352     0.00718341
Ti      1.90186073     2.85214407     3.68405698     0.00028334    -0.00004191     0.12461216
Ti     -0.00950749    -2.84024098     8.50377820     0.03785411     0.01162602     0.00719575
Ti      1.90158380    -0.95081089     3.45561321    -0.00018589    -0.00069985     0.08907410
O       1.90162697     2.85225624     5.68641307     0.00018229    -0.00037821     0.00801567
O       3.80068975     4.75099702     0.78799098     0.00511778    -0.00547080    -0.00967635
O       3.80072583     0.95375499     0.78802280     0.00522397     0.00561401    -0.00967686
O      -1.90154646     2.85238736     5.67831672     0.00002160     0.00002777     0.02351300
O       0.00253231     4.75099494     0.78803799    -0.00524917    -0.00562275    -0.00965810
O      -1.90158410    -0.95075999     5.62528388     0.00001928     0.00000077    -0.04070418
O       0.00252480     0.95375813     0.78806375    -0.00529339     0.00578318    -0.00962570
O       3.78063391     2.85236833     8.88138499     0.01130360     0.00002365    -0.01309695
O       5.70467963     4.74928239     4.06037800    -0.00000951     0.00155372     0.02543439
O       3.82632480    -0.95080123     8.93704628     0.04021824     0.00009025    -0.01488232
O       5.70467786     0.95543987     4.06040268    -0.00005656    -0.00145807     0.02555575
O       0.02247247     2.85237671     8.88137133    -0.01105883     0.00002623    -0.01308846
O       1.90141673     4.87469102     4.14087638    -0.00029671    -0.01053484    -0.04669356
O      -0.02325595    -0.95080561     8.93706175    -0.04005497     0.00009976    -0.01493477
O       1.90143192     0.83012492     4.14077416    -0.00033476     0.00984064    -0.04633567
O       1.90157262     0.91758980     8.09553672     0.00005528    -0.00736801    -0.03552546
O       3.78277344     2.85241126     3.26215739    -0.00082352    -0.00006633     0.01156997
O       1.90159293    -2.81920752     8.09548911     0.00016712     0.00727185    -0.03447902
O       3.82542319    -0.95071338     3.17779474    -0.02041919     0.00005039     0.00705948
O      -1.90157118     0.97136368     8.04717204     0.00003420     0.03562496     0.03210975
O       0.02031831     2.85241011     3.26214820     0.00077262    -0.00005656     0.01143010
O      -1.90155458    -2.87283356     8.04716619     0.00011570    -0.03569772     0.03202259
O      -0.02232527    -0.95070799     3.17785698     0.02042434     0.00006068     0.00697206
O       3.78067617     4.87545758     6.46743106    -0.01218729     0.01836051     0.00163831
O       5.70469731     6.65543987     1.59803780    -0.00002751     0.00002674    -0.07002968
O       3.78070633     0.82921948     6.46747078    -0.01279021    -0.01825175     0.00171210
O       5.70470502     2.85233282     1.66812999    -0.00006119     0.00012110    -0.02156951
O       0.02246470     4.87545580     6.46746753     0.01242126     0.01843739     0.00154858
O       1.90156720     6.65548348     1.57127438    -0.00012496     0.00012058    -0.04339381
O       0.02241166     0.82922137     6.46750286     0.01286709    -0.01835280     0.00162211
O       1.90157643     2.85233629     1.66464987     0.00004294     0.00000411     0.07983818
