# total energy = -4985.72754959 eV

CRYSTAL
PRIMVEC
        4.18874065     0.00000000     0.00000000
        1.61104665     3.86653293     0.00000000
       -2.89993253    -1.93329239     5.46037108
PRIMCOORD
6 1
Ti      1.20817175     2.90004855     1.36509248    -0.00052425     0.00052425     0.00000000
Ti      1.69168313    -0.96680798     4.09527785     0.00052425    -0.00052425    -0.00000000
O       0.40280521     0.96662817     0.88944970    -0.00071065    -0.00097933    -1.72979540
O       2.49704948     0.96661233     4.57092070     0.00071065     0.00097933     1.72979540
O      -0.40276903    -0.96660405     3.61963512    -0.00097933    -0.00071065    -1.72979540
O       3.30262366     2.89984450     1.84073533     0.00097933     0.00071065     1.72979540
