# total energy = -19959.66814957 eV

CRYSTAL
PRIMVEC
        7.60600008     0.00000000     0.00000000
        0.00000000     7.60600008     0.00000000
       -1.89786986    -1.89786986     4.85670466
PRIMCOORD
24 1
Ti      3.82067599     6.71167000     1.13563999    -0.02843076    -0.24421838     0.46927278
Ti      3.65465298     2.83429801     1.12292402     0.99981112     0.80809802     2.35798427
Ti      0.07063400     6.66960501     1.22739901    -0.24158866     0.36545417    -0.01398449
Ti     -0.04462599     2.74003900     1.30827200    -0.91698068     0.60581975    -1.21076018
Ti      5.71850521     2.77096423     3.77024884    -0.35696670    -1.09637870    -1.07341051
Ti      5.76341220    -1.00954779     3.57557083     0.06278045     1.08962390    -0.12499911
Ti      1.88316324     2.71814022     3.62104181     0.64901147     1.62600867     0.35689702
Ti      1.99750124    -0.88243376     3.66512280    -0.17436482    -1.70625231    -1.14678211
O       3.91075900     4.82906700     0.67517699    -0.35819414    -1.22404790     0.80521556
O       3.72036600     1.04177601     0.79149899     0.56594810    -0.67235401     0.00731248
O       0.09447502     4.65781101     0.85082298    -0.82019327     1.81279089     0.58707023
O      -0.11056799     0.95252402     0.68204301     0.31187981    -0.09934772     0.43664264
O       5.83633822     4.76298023     3.95691479     0.15535280    -0.35082844     0.80476150
O       5.88236125     0.94624322     3.98421282    -1.12061084    -0.19579035     1.18149048
O       1.66978420     4.80697523     4.14222182     0.31375055     0.53435514    -1.15208424
O       1.75592225     0.86957422     4.00778481     0.25440690     2.27155197     1.00773320
O       3.65280721     2.60049422     3.18740783     0.22695007     0.52638857     0.63377228
O       3.82764721    -0.85688275     3.31306779     0.04052754    -0.52717070    -0.34723712
O       0.00709521     2.61930123     3.13237879     0.04121788     0.44310125     1.16928647
O      -0.00033978    -0.55096776     3.05896381     0.14969997    -2.05769576     0.51508806
O       5.72875300     6.72859499     1.60401298    -0.62681384    -0.43385299    -0.65280771
O       5.56359699     2.79211301     1.93308899     0.62517734     0.65690039    -3.34240244
O       1.96818001    -0.57700699     1.72224102    -0.16443188    -1.56487681    -0.89401790
O       1.85371500     3.06332100     1.62863199     0.41206186    -0.56727864    -0.37404140
