# total energy = -19518.92233123 eV

CRYSTAL
PRIMVEC
        7.60600008     0.00000000     0.00000000
        0.00000000     7.60600008     0.00000000
       -1.89786986    -1.89786986     4.85670466
PRIMCOORD
23 1
Ti      3.75902001     6.69979198     1.21372898     0.68472822    -0.18677606     0.39323315
Ti      3.72859799     2.86586200     1.19961900     0.42715887     0.27916200     1.85847067
Ti      0.05180799     6.62352098     1.17584503    -0.80948462     0.32165387    -0.76994978
Ti      0.00283300     2.81978998     1.10118600    -0.84897369    -0.29460894     1.28186484
Ti      5.71925924     2.72439520     3.65816682    -1.62717595     1.48738347    -0.44721065
Ti      5.74224522    -1.00566379     3.52406283    -0.35966301    -0.55562100     0.75258557
Ti      1.94638923     2.89499221     3.72863582     1.36719258     0.18845730    -0.07802530
Ti      1.92492125    -0.92355575     3.68007079    -0.01516771     0.09065250    -0.12465870
O       3.95608901     4.76786400     0.83334600    -0.69337047    -0.02212127     0.43763354
O       3.61722099     0.96318800     0.85798000     0.07884548     0.64510159    -0.54303236
O       7.27545698     4.72112802     0.74674800     1.10411258     0.53471921     0.83090809
O       0.01794800     0.92082800     0.68390900     0.38706147    -0.80366698     0.33525346
O       5.76324424     4.66908222     3.95062282     0.58366300     0.95040941     0.27841484
O       5.65095923     0.92494722     4.10489482     0.64087778    -0.40097577    -1.39894495
O       1.92775922     4.81944423     4.09094179    -0.48683394    -0.31087554    -0.06711764
O       2.03180124     1.00231124     4.13731782    -0.88750246    -0.59961876    -0.16145634
O       3.76284422     2.88562323     3.29382881     0.38497193    -0.02054775    -1.07503391
O       3.77561824    -0.82484879     3.26261281    -0.06318000    -0.50554875    -0.37436381
O       0.03410923    -0.78135577     3.18152581    -0.06595705    -0.35410300    -0.22013202
O       5.64781401     6.84250600     1.60676401     0.68181259    -0.46463348     0.17576762
O       5.79722001     2.66717098     1.78179700    -0.05787093    -0.00594388    -0.65887834
O       1.89759898     6.49292998     1.57623498    -0.39732352     0.00936807     0.42275996
O       1.78124200     2.93439199     1.78111098    -0.02792116     0.01813323    -0.84808769
