# total energy = -4989.88358530 eV

CRYSTAL
PRIMVEC
        3.65216295     0.00000000     0.00000000
        0.18248628     3.64760099     0.00000000
       -1.91735704    -1.82383134     4.66243038
PRIMCOORD
6 1
Ti      0.13671717     2.73583925     1.16560747     0.00204711    -0.00199492    -0.00122565
Ti      1.78057455    -0.91207004     3.49682266    -0.00204711     0.00199492     0.00122565
O       0.04565999     0.91189428     0.75947179     0.00001286     0.00082095     0.73163596
O       1.87163158     0.91187483     3.90295839    -0.00001286    -0.00082095    -0.73163596
O      -0.04564198    -0.91187715     3.09068698     0.00081144     0.00000334     0.73105952
O       1.96293354     2.73564621     1.57174325    -0.00081144    -0.00000334    -0.73105952
