# total energy = -19072.23428863 eV

CRYSTAL
PRIMVEC
        5.93400000     0.00000000     0.00000000
        0.00000000     9.29699974     0.00000000
        0.00000000     0.00000000     4.64899994
PRIMCOORD
22 1
Ti      4.38134701     6.65044102     2.40535598    -0.29922870     0.85577684    -1.52137964
Ti      4.42910002     2.44559901     2.04676701     0.70348237    -0.71738896     2.22382920
Ti      1.42103401     7.22977998     2.68462599     1.23440534     1.42895513     0.17820014
Ti      1.61731099     2.41182501     2.04070401    -0.86799935     0.09872886     1.41574017
Ti      3.07713798     4.58822198     4.45409200    -1.19474452     0.75469928     1.89139957
Ti      2.98814502     0.21984902     0.20207200     1.80544602    -0.49234330    -1.66054605
Ti      5.87591798     4.43660502     4.18269800     1.02216172    -1.19242255     0.36336772
Ti      5.90723300     0.02927800     0.25463501    -1.75790014    -1.65903707     0.88107444
O       4.33815001     5.40978501     0.97995800     0.56327569    -0.52962328    -0.00382580
O       4.49892702     0.68113600     1.35761302    -0.06834817     0.24492364     0.00484345
O       1.61475300     0.55744002     1.40839398    -1.75509635     1.80264712     0.32693749
O       4.36786802     8.45759000     4.00473701     1.15922960     1.45650091     0.49812365
O       4.22221701     4.20042703     3.20148098     2.10154954    -2.57667853    -1.39929719
O       1.46951199     8.51771999     4.14298801     0.21561613    -1.10703104    -2.43099051
O       1.63043400     3.91398301     3.30054201    -1.75946800     0.41796743     0.49007378
O       2.99070598     6.24895201     3.55851698    -2.23077606     0.06862611     0.55760820
O       2.98741402     1.64089398     3.29231600     0.07832560    -0.53816089     0.60911590
O       5.84256601     6.22565202     3.56725602     1.93870712    -0.75685823     0.14149866
O       3.03100002     7.72428797     1.67324301    -1.37347199     0.18529690    -0.35312315
O       3.07385100     2.88971398     0.97057500    -1.15476770     1.61140171    -1.43485376
O       5.90844900     7.78108700     1.65468799     0.37762603    -0.07153994    -0.46300340
O       5.85294899     2.79579597     0.89060801     1.26197632     0.71556013    -0.31479313
