# total energy = -19959.38466478 eV

CRYSTAL
PRIMVEC
        5.40866137     0.00000000     0.00000000
        0.00002964     5.75645130     0.00000000
        0.00000000     0.00000000     9.68031455
PRIMCOORD
24 1
Ti      1.96039717     3.41126771     3.59132773     0.01095316    -0.35198364     0.30442490
Ti      3.44829384     2.34518364     6.08898710    -0.01095316     0.35198364    -0.30442490
Ti      4.66463317     2.34518562     1.24879101     0.01217392     0.35228420    -0.30443827
Ti      0.74405784     3.41126596     8.43152393    -0.01217392    -0.35228420     0.30443827
Ti      1.96038246     0.53304218     1.24882983     0.01095316    -0.35198364    -0.30442490
Ti      3.44830855     5.22340934     8.43148511    -0.01095316     0.35198364     0.30442490
Ti      0.74404313     0.53304003     6.08894828    -0.01217392    -0.35228420    -0.30443827
Ti      4.66464788     5.22341149     3.59136655     0.01217392     0.35228420     0.30443827
O       1.71188591     2.02694441     4.93979052     0.61141524     0.54735284     0.03788856
O       3.69680510     3.72950699     4.74052431    -0.61141524    -0.54735284    -0.03788856
O       0.99249727     2.02696760     0.09966427    -0.61117613     0.54724666     0.03760060
O       4.41619379     3.72948381     9.58065029     0.61117613    -0.54724666    -0.03760060
O       3.69679039     0.85128129     0.09963286    -0.61141524    -0.54735284     0.03788856
O       1.71190062     4.90517006     9.58068170     0.61141524     0.54735284    -0.03788856
O       4.41617908     0.85125811     4.93982193     0.61117613    -0.54724666     0.03760060
O       0.99251188     4.90519330     4.74049290    -0.61117613     0.54724666    -0.03760060
O       0.19652719     3.50140001     2.61489452     0.21164095    -0.12459442     0.14757161
O       5.21216382     2.25505135     7.06542031    -0.21164095     0.12459442    -0.14757161
O       2.90086221     2.25499770     2.22529367     0.21152294     0.12465818    -0.14793182
O       2.50782881     3.50145366     7.45502100    -0.21152294    -0.12465818     0.14793182
O       0.19651248     0.62317430     2.22526275     0.21164095    -0.12459442    -0.14757161
O       5.21217854     5.13327705     7.45505191    -0.21164095     0.12459442     0.14757161
O       2.50781409     0.62322795     7.06545116    -0.21152294    -0.12465818    -0.14793182
O       2.90087692     5.13322340     2.61486361     0.21152294     0.12465818     0.14793182
