# total energy = -19947.16633336 eV

CRYSTAL
PRIMVEC
        4.97197688     0.00000000     0.00000000
        1.55259800     5.05879326     0.00000000
        0.00000000     0.00000000     9.00285030
PRIMCOORD
24 1
Ti      2.72217059     2.99783623     3.33999325     2.58419978    -2.23903573     1.00289053
Ti      3.80240420     2.06095715     5.66285710    -2.58419978     2.23903573    -1.00289053
Ti      4.92053925     2.06095889     1.16139595    -4.88273420     0.23656086     1.85201952
Ti      1.60403563     2.99783468     7.84145450     4.88273420    -0.23656086    -1.85201952
Ti      1.94587171     0.46843968     1.16143205     2.58451551    -2.24100674    -1.00259794
Ti      4.57870311     4.59035384     7.84141840    -2.58451551     2.24100674     1.00259794
Ti      0.82773664     0.46843779     5.66282100     4.88283036    -0.23746615     1.85153306
Ti      5.69683818     4.59035573     3.34002935    -4.88283036     0.23746615    -1.85153306
O       2.12035820     1.78128714     4.59408560    -0.80448588     0.11611055    -0.94235388
O       4.40421661     3.27750628     4.40876475     0.80448588    -0.11611055     0.94235388
O       1.45905784     1.78130755     0.09268941     1.20348293    -0.83036507    -0.28821769
O       5.06551702     3.27748592     8.91016069    -1.20348293     0.83036507     0.28821769
O       3.62791770     0.74810959     0.09266020     0.80489957    -0.11611518    -0.94223972
O       2.89665711     4.31068384     8.91018990    -0.80489957     0.11611518     0.94223972
O       4.28921811     0.74808922     4.59411481    -1.20321425     0.83052396    -0.28786390
O       2.23535665     4.31070426     4.40873554     1.20321425    -0.83052396     0.28786390
O       1.12502154     3.07704487     2.43189447    -0.30408860    -1.29107325    -1.53800311
O       5.39955326     1.98174856     6.57095588     0.30408860     1.29107325     1.53800311
O       3.27484712     1.98170138     2.06955934     1.54286970    -1.73250020    -2.16695972
O       3.24972768     3.07709204     6.93329086    -1.54286970     1.73250020     2.16695972
O       0.34872258     0.54764818     2.06953058    -0.30387622    -1.29114344     1.53904570
O       6.17585217     4.51114525     6.93331962     0.30387622     1.29114344    -1.53904570
O       2.47342878     0.54769534     6.57098459    -1.54263239     1.73237807    -2.16702399
O       4.05114603     4.51109808     2.43186571     1.54263239    -1.73237807     2.16702399
