# total energy = -19073.41685536 eV

CRYSTAL
PRIMVEC
        5.93400000     0.00000000     0.00000000
        0.00000000     9.29699974     0.00000000
        0.00000000     0.00000000     4.64899994
PRIMCOORD
22 1
Ti      4.47871700     6.79396399     2.38561201    -1.45413370     0.14141150    -0.52273632
Ti      4.36279300     2.54479202     2.08142399     0.64606910    -1.50989606     0.19420912
Ti      1.45343300     7.19266799     2.51744302     1.93623577    -0.30409194    -0.09378154
Ti      1.55817501     2.30846998     2.18210203     0.24338483     0.35802342    -0.03302866
Ti      3.01254698     4.55547099     4.35184300    -1.06743887     0.21724827     0.66803764
Ti      3.03902103     0.08561299     0.05366498     1.36247229     0.03850820     0.33999330
Ti      5.76235401     4.59821401     4.48825198     1.30078122    -0.53598753     0.77502463
Ti      0.06367701     9.08963598     0.28100000    -1.82152211     0.54320488     0.74370421
O       4.39214202     5.35880698     0.99497600    -0.15181239     0.69859110     0.46045929
O       4.42504001     0.80285100     1.19447598     0.50693791     0.19085152    -1.14660188
O       1.60529200     0.60874000     1.29409900    -0.68415024     1.60858301    -0.61904268
O       4.56629801     8.30061899     4.05872400    -0.96041846     1.07715867    -0.71713699
O       4.44231501     4.10957899     3.29028301     0.13430625    -1.38655505    -0.59905877
O       1.45240697     8.42532099     3.84020602     0.56065805     1.45822458     0.75812964
O       1.43215002     3.86396100     3.50150400    -0.02456433    -0.01683508     0.01095599
O       2.91352997     6.23092898     3.46288200    -0.38852186    -0.46644508    -0.37125046
O       3.13134700     1.62402000     3.29000498    -0.46467590    -0.39594798     0.67142918
O       5.87707498     6.31134000     3.56488399     1.02973954    -1.60571263    -0.25411122
O       2.91953402     7.85882801     1.49761400     0.24400575    -1.30265478     0.39396668
O       2.98219702     3.02118802     1.03250800    -1.34825640     1.19525437    -0.36698937
O       5.86674099     7.99967398     1.76120799    -0.29308839    -0.68843164    -0.88416954
O       5.91999501     2.94677897     1.00895300     0.69399191     0.68549827     0.59199749
