# total energy = -19073.01501692 eV

CRYSTAL
PRIMVEC
        5.93400000     0.00000000     0.00000000
        0.00000000     9.29699974     0.00000000
        0.00000000     0.00000000     4.64899994
PRIMCOORD
22 1
Ti      4.44602602     6.85733202     2.14450102    -0.93951281     0.56867784     0.18478757
Ti      4.43512899     2.39699498     2.16284998     0.26024073     2.26435211     0.76063750
Ti      1.54714198     6.94772200     2.71271298    -0.38175008     0.31249328     0.81812379
Ti      1.67348199     2.45455502     2.05191701     0.19451637     1.16706967     1.35110107
Ti      3.07247302     4.70359400     4.58679399    -0.96323562    -1.69895423    -0.87496499
Ti      2.97166099     0.08500201     0.15480800    -0.91573627    -0.80485586    -1.50751008
Ti      0.04865499     4.66857400     4.42915902     0.51070844    -1.82224047    -0.50113699
Ti      5.78208703     9.11828098     0.34321002     0.71328033    -1.45547299    -0.08428568
O       4.50144300     5.53449801     0.74214299     0.32068996     0.85581437     1.94725707
O       4.31227102     0.77569098     1.33749100     0.68105848    -1.69049787    -1.27596750
O       1.36474199     0.95258102     1.04233800    -0.65621082    -0.86324538    -0.53836452
O       4.38751600     8.19130103     3.96504200     0.02977801     2.50631846     0.66301165
O       4.35377402     3.89701902     3.27081299     0.85161088    -0.86440083     1.36963539
O       1.25738299     8.20111901     3.98384002     0.82598854     1.20483456     0.07220303
O       1.54871199     3.95422498     3.43417398    -0.74913438    -0.08828246     0.05798148
O       3.19785601     6.04532699     3.36862098    -1.69160036     1.73442724    -2.09432140
O       2.72945302     1.56534800     3.42082802     0.57312019    -0.88682626    -0.77690462
O       5.73422199     6.09456799     3.23041999     1.57126317    -0.28607441    -0.39622360
O       2.72976402     7.80606999     1.52556700     0.88112535    -0.10319872     0.03534368
O       3.11401899     3.03795399     0.95485801    -0.30882046     0.63962154     0.66671095
O       0.05005398     7.88689901     1.67585202    -0.29104461     0.36782164    -0.75356773
O       0.04103399     3.33087403     1.10848500    -0.51633530    -1.05738199     0.87645391
