# total energy = -4988.57171287 eV

CRYSTAL
PRIMVEC
        4.39263630     0.00000000     0.00000000
       -0.00000818     3.59397495     0.00000000
       -2.19634746    -1.79702854     5.14782412
PRIMCOORD
6 1
Ti     -0.00019065     2.69561516     1.28695617    -0.00218415    -0.00229754     3.72089648
Ti      2.19647131    -0.89866898     3.86086812     0.00218415     0.00229754    -3.72089648
O       0.00004531     0.89848617     0.83853855     0.00031882     0.00099862    -0.78129555
O       2.19623523     0.89845990     4.30928579    -0.00031882    -0.00099862     0.78129555
O      -0.00002125    -0.89847800     3.41245049    -0.00201215    -0.00016327    -1.36768649
O       2.19630168     2.69542407     1.73537379     0.00201215     0.00016327     1.36768649
