# total energy = -19516.13897113 eV

CRYSTAL
PRIMVEC
        5.17600016     0.00000000     0.00000000
        0.00000000     5.50899976     0.00000000
        0.00000000     0.00000000     9.26300011
PRIMCOORD
23 1
Ti      1.81620400     3.34439599     3.44613899    -0.25620461    -1.45603323     1.50332663
Ti      3.51350802     2.27351401     5.89146500     0.31527881    -2.12022836    -1.97471569
Ti      4.21787702     2.15748602     1.44783800    -0.05102459     0.00228288    -1.01368634
Ti      0.85526601     3.40912098     7.73127899    -1.56224940    -0.04576103     1.56791688
Ti      1.85806801     0.26998099     1.38228702     0.04128216     0.74803806    -1.90467676
Ti      3.28652998     4.98174300     8.03399002    -1.45715912     3.00197797     0.09128422
Ti      0.93013702     0.42632202     5.89785402    -1.34384362     0.39878365    -1.16169760
Ti      4.39785300     4.89319900     3.38602700     0.50817256     1.35053389     2.46817562
O       1.86467902     2.01904299     4.71208200    -0.80867652    -0.46107996     1.22268830
O       3.79126601     3.38332301     4.39218102    -0.12651838     0.84006405     0.30932234
O       5.12416503     2.84718501     0.07405402    -0.02908047     0.39152182    -1.25316540
O       3.38231900     0.92818198     0.13593399    -0.19739703    -1.07367328     0.92480558
O       1.41227200     4.95210198     9.02336102     1.01922964    -0.66315820     0.35289767
O       4.31260599     0.59612500     4.96339500    -0.36046957     0.21997570    -2.32536827
O       1.18363801     4.86435201     4.41137999     0.09047921    -0.61615687    -0.29171464
O       0.21530899     3.68155402     2.44240500     0.31149389    -1.35871103    -0.51274809
O       0.00313299     1.84488102     6.77431501     0.19104101     3.27127053     1.13590634
O       2.30201899     2.10848400     2.08756102     1.39320959    -1.74652069    -0.98643906
O       2.74027200     3.28345302     7.31038199    -0.51954789     0.00715435     0.38058074
O       0.07892102     0.73439002     2.00666903    -0.23519098    -0.05527025     0.77275640
O       4.89785401     4.89089798     7.06721297     1.00030631    -1.73873435     0.12051022
O       2.51974299     0.75744003     6.80350601     0.95197161    -0.91577381     0.99608764
O       2.83620400     4.44172402     2.24734402     1.12489713     2.01949738    -0.42204623
