# total energy = -4989.07715313 eV

CRYSTAL
PRIMVEC
        3.28648665     0.00000000     0.00000000
        0.00000000     4.65901011     0.00000000
        0.00000000    -0.00006373     4.91651210
PRIMCOORD
6 1
Ti      1.64324333     2.32947302     2.45825605     0.00000000     0.00000000     0.00000000
Ti      0.00000000     0.00000000     0.00000000     0.00000000     0.00000000     0.00000000
O       1.64324333     0.90795996     0.95815578     0.00000000    -0.12511147    -0.20280381
O       1.64324333     3.75098603     3.95835626     0.00000000     0.12511147     0.20280381
O       0.00000000     1.42148724     3.41641283     0.00000000     0.12496749    -0.20293596
O       0.00000000     3.23745880     1.50009921     0.00000000    -0.12496749     0.20293596
