# total energy = -4986.78869458 eV

CRYSTAL
PRIMVEC
        4.09177906     0.00000000     0.00000000
        1.57375390     3.77702985     0.00000000
       -2.83280446    -1.88854025     5.33397360
PRIMCOORD
6 1
Ti      1.18020482     2.83291780     1.33349312    -0.00002288     0.00002288     0.00000000
Ti      1.65252380    -0.94442816     4.00047976     0.00002288    -0.00002288     0.00000000
O       0.39348101     0.94425252     0.86886058    -0.00057773    -0.00085746    -1.75027270
O       2.43924741     0.94423704     4.46511235     0.00057773     0.00085746     1.75027270
O      -0.39344567    -0.94422896     3.53584727    -0.00085746    -0.00057773    -1.75027270
O       3.22617403     2.83271847     1.79812572     0.00085746     0.00057773     1.75027270
