# total energy = -19901.29941744 eV

CRYSTAL
PRIMVEC
        7.67822877     0.00000000     0.00000000
        0.00003244     6.04014244     0.00000000
        0.00000000     0.00000000    12.22492304
PRIMCOORD
24 1
Ti      2.78300787     3.57938286     4.53535926     0.50374229    -0.86606742     1.27555406
Ti      4.89525341     2.46075978     7.68956385    -0.50374229     0.86606742    -1.27555406
Ti      6.62198965     2.46076188     1.57705345     0.50350960     0.86569050    -1.27588856
Ti      1.05627163     3.57938104    10.64786979    -0.50350960    -0.86569050     1.27588856
Ti      2.78299179     0.55931178     1.57710247     0.50374229    -0.86606742    -1.27555406
Ti      4.89526949     5.48083107    10.64782077    -0.50374229     0.86606742     1.27555406
Ti      1.05625555     0.55930947     7.68951484    -0.50350960    -0.86569050    -1.27588856
Ti      6.62200573     5.48083337     4.53540827     0.50350960     0.86569050     1.27588856
O       2.43021935     2.12683687     6.23828466     0.75690323     1.49051045    -1.30486079
O       5.24804200     3.91330577     5.98663845    -0.75690323    -1.49051045     1.30486079
O       1.40896285     2.12686124     0.12586246    -0.75735960     1.49141522    -1.30631089
O       6.26929857     3.91328147    12.09906031     0.75735960    -1.49141522     1.30631089
O       5.24802591     0.89323448     0.12582280    -0.75690323    -1.49051045    -1.30486079
O       2.43023543     5.14690816    12.09909997     0.75690323     1.49051045     1.30486079
O       6.26928249     0.89321019     6.23832432     0.75735960    -1.49141522    -1.30631089
O       1.40897879     5.14693253     5.98659879    -0.75735960     1.49141522     1.30631089
O       0.27898756     3.67395702     3.30225670    -1.40084268     0.30795837    -0.00953854
O       7.39927379     2.36618562     8.92266641     1.40084268    -0.30795837     0.00953854
O       4.11811022     2.36612929     2.81024373    -1.40034929    -0.30787223     0.00944804
O       3.56015113     3.67401342     9.41467917     1.40034929     0.30787223    -0.00944804
O       0.27897147     0.65388580     2.81020468    -1.40084268     0.30795837     0.00953854
O       7.39928988     5.38625691     9.41471822     1.40084268    -0.30795837    -0.00953854
O       3.56013505     0.65394214     8.92270539     1.40034929     0.30787223     0.00944804
O       4.11812630     5.38620051     3.30221765    -1.40034929    -0.30787223    -0.00944804
