# total energy = -4983.49278702 eV

CRYSTAL
PRIMVEC
        3.47117083     0.00000000     0.00000000
        0.00000000     5.43880429     0.00000000
        0.00000000    -0.00007058     5.43880429
PRIMCOORD
6 1
Ti      1.73558535     2.71936679     2.71940208     0.00000000     0.00000000     0.00000000
Ti      0.00000000     0.00000000     0.00000000     0.00000000     0.00000000     0.00000000
O       1.73558535     1.05992908     1.05994283     0.00000000    -0.90875264    -0.90875264
O       1.73558535     4.37880450     4.37886133     0.00000000     0.90875264     0.90875264
O       0.00000000     1.65940910     3.77934602     0.00000000     0.90916376    -0.90916376
O       0.00000000     3.77932448     1.65945814     0.00000000    -0.90916376     0.90916376
