# total energy = -19073.49849635 eV

CRYSTAL
PRIMVEC
        5.17600016     0.00000000     0.00000000
        0.00000000     5.50899976     0.00000000
        0.00000000     0.00000000     9.26300011
PRIMCOORD
22 1
Ti      1.83986802     3.45346402     3.37517098    -0.99959257    -1.26785618    -0.58676607
Ti      3.55849899     2.23110903     5.95676902     0.14795727     0.16188417    -0.22652610
Ti      4.30506902     2.29158901     1.24134299     0.36390688    -0.52604636    -0.51496130
Ti      0.95528998     3.07786602     8.06401897    -0.00101199     0.36649289    -0.16061765
Ti      1.72525701     0.46171302     1.28394398     0.24521751     1.05306948    -1.24782445
Ti      3.28860599     5.07995602     8.01452900     0.98978998     0.11797460     2.00748004
Ti      1.45787200     0.26833599     5.90384198    -1.60866374    -0.84328795    -0.24194655
Ti      4.26578200     4.98819002     3.37527999     1.78827439    -0.15050652     1.55604635
O       3.28087699     3.44094999     4.52371998     0.83444001    -0.24321282     0.22850045
O       0.84283003     1.92564802     0.43318899     0.36640162     0.21520424    -1.90561984
O       4.37898498     3.48788197     8.66904198    -0.95621985     0.23122659     0.48710596
O       3.30720599     0.77458002     0.28334902     1.26300193     0.34474161    -0.19196120
O       1.67238400     4.68443000     8.92450600    -1.13522886    -0.76008291     1.43828284
O       2.84210401     0.72435502     4.86230299     1.74433242     0.62693880    -1.29343095
O       0.77824500     4.67666999     4.34721201    -0.44910761     0.55377932     2.10517351
O       0.07087498     3.52357599     2.41375699    -0.84225411    -0.73905488    -0.50214486
O       0.12479502     1.74559303     6.39028198     0.41739921     0.16152576     0.08719668
O       2.76968801     2.02569999     2.30705501    -1.23232197     0.06755499     0.12690661
O       2.33978700     4.15412100     6.71940599    -1.01631940    -1.89976261    -0.82124356
O       5.08946502     0.63030202     2.21833998     0.47431292     0.59519775     0.23863189
O       2.54321999     1.20430598     7.20484298     0.18881006     1.44090254     0.85439847
O       2.66590402     4.76341600     2.46769401    -0.58312384     0.49331800    -1.43668053
