# total energy = -19961.07537249 eV

CRYSTAL
PRIMVEC
        7.60600008     0.00000000     0.00000000
        0.00000000     7.60600008     0.00000000
       -1.89786986    -1.89786986     4.85670466
PRIMCOORD
24 1
Ti      3.87646403     6.58179397     1.11925502    -0.57917051     0.12291497     1.34868680
Ti      3.75712900     2.71096198     1.22922499     1.34732926     0.39316450    -0.03459241
Ti     -0.04811100     6.71850702     1.18871800     0.22209095     0.99920151     0.06052790
Ti      0.04224501     2.94635600     1.23380999    -1.40662818    -1.21460398     0.15145834
Ti      5.67214521     2.91851821     3.68756579    -1.07089752     0.51988471    -1.31870824
Ti      5.70701022    -0.81811575     3.65970784    -1.08715101    -1.06050794    -0.09391755
Ti      1.84037021     2.75734024     3.66533283     1.43927426    -0.28506217     0.32447977
Ti      1.93146421    -0.98827577     3.62781184     1.08537129     0.15200805    -1.03234381
O       3.99353798     4.68231001     0.74024600    -1.00897736    -0.56803429     0.09335422
O       3.99491998     0.93678301     0.71438400    -0.54828950    -0.87177964     0.19623849
O      -0.13241999     4.83588498     0.82951000     0.73784260    -0.71201586    -0.09059774
O      -0.14795701     1.03210397     0.76568498     0.64538878    -0.78928448     0.60496820
O       5.41331324     4.86241025     4.07346280     1.06580802    -1.34057060     0.04980460
O       5.55580925     0.97434121     4.17625881     0.79146812     1.89855547    -0.71470884
O       2.15528322     4.68820420     4.08691681    -0.97383448     0.19444592    -1.15942192
O       1.98938424     0.84366925     4.06406583    -0.90066626     1.47314007    -0.33989148
O       3.75133223     2.78111723     3.13664883     0.39910118     0.16420048     0.74589376
O       3.83784520    -0.80965379     3.18090281    -0.97492257    -0.35292184    -0.30600536
O      -0.02319775     2.95765023     3.22350079     0.58329945     0.10658795     0.95823533
O      -0.02045275    -0.89331576     3.20483782     0.65802705    -0.17632761     0.10873791
O       5.66271501     6.69194698     1.65291398     1.26227431    -0.07403237     0.01242923
O       5.72653998     2.77833302     1.72264203     0.01397806     0.31712667     0.22134841
O       1.95030202     6.62419499     1.52511799    -0.70654841    -0.06559864     0.31103289
O       1.90885601     2.48510701     1.61762902    -0.99416754     1.16950887    -0.09700827
