# total energy = -4989.63052775 eV

CRYSTAL
PRIMVEC
        3.19822391     0.00000000     0.00000000
        0.00000000     4.10002154     0.00000000
        0.00000000    -0.00006021     4.60159552
PRIMCOORD
6 1
Ti      1.59911195     2.04998061     2.30079786     0.00000000     0.00000000     0.00000000
Ti      0.00000000     0.00000000     0.00000000     0.00000000     0.00000000     0.00000000
O       1.59911195     0.79902207     0.89678325     0.00000000    -0.00832395    -0.14963157
O       1.59911195     3.30093916     3.70481248     0.00000000     0.00832395     0.14963157
O       0.00000000     1.25093419     3.19758194     0.00000000     0.00891350    -0.15069036
O       0.00000000     2.84902704     1.40401379     0.00000000    -0.00891350     0.15069036
