# total energy = -19516.93981068 eV

CRYSTAL
PRIMVEC
        5.93400000     0.00000000     0.00000000
        0.00000000     9.29699974     0.00000000
        0.00000000     0.00000000     4.64899994
PRIMCOORD
23 1
Ti      4.57045602     7.00057400     2.21892398     0.20440586     0.40194276    -0.20326352
Ti      4.56731800     2.29463099     2.37016400    -1.82087188    -0.18358403    -0.35097345
Ti      1.52715998     7.07162398     2.31581300    -0.39452230     0.60104032    -0.34913871
Ti      1.41859800     2.26509401     2.36866198     1.49509010    -0.70448484    -1.04431539
Ti      2.80390202     4.47878701     0.25844398     0.91453993    -0.53585486     0.33590421
Ti      3.04174798     9.21003899     4.46377097    -0.73982158     0.56985849     0.59703866
Ti      5.84782597     4.66129400     4.62609800    -0.74711786     0.02487749    -0.37394730
Ti      5.92377302     0.06457799     0.05259302     0.62079566     0.22808162     0.66598153
O       4.42305100     5.37502499     1.01016000    -0.95336823     1.48124548     0.79383868
O       4.39401001     0.96952199     0.89455102     0.49766728    -0.73298656     0.22045264
O       1.41587702     5.76905900     0.94536500     0.84544125    -2.15276799    -0.82840897
O       1.51337798     0.85127802     0.96296400    -0.15832936    -0.14185553     0.11415162
O       4.59615398     8.51698401     3.54525802    -1.04872637    -0.38224451     0.65955685
O       4.33378001     3.65052100     3.86330302     0.04462408     1.10231512    -1.27339871
O       1.35286201     8.48538700     3.51930198     1.24072974     0.36197701     1.42117677
O       1.37999103     3.91676902     3.71103401     1.53259685    -0.22698993    -0.87161381
O       3.00164301     1.42529198     3.28270699    -0.21104342     0.07604478    -0.33947727
O       5.89449697     6.21108801     3.27667299    -0.06478514    -0.78692704     0.02178008
O       0.02425198     1.55943403     3.45963698    -0.11289435     0.64132438    -1.65676344
O       3.02634199     7.91459699     1.39605002    -0.11704617    -0.72657114    -0.30288866
O       2.93691601     3.05668798     1.39979802    -0.08543985     1.55283221     0.00058827
O       0.02378202     7.89553799     1.31733501    -0.45460489    -0.13424275    -0.11620439
O       0.14947098     3.13708403     1.11692701    -0.48731910    -0.33303023     2.87992483
