# total energy = -4988.67226715 eV

CRYSTAL
PRIMVEC
        3.09454760     0.00000000     0.00000000
        1.19352439     4.69950158     0.00000000
       -0.00000768    -0.00006354     4.88761883
PRIMCOORD
6 1
Ti      2.14403204     2.34971893     2.44380947     0.00000000     0.00000000     0.00000000
Ti      0.00000000     0.00000000     0.00000000     0.00000000     0.00000000     0.00000000
O       1.77987254     0.91585120     0.95252495    -0.44398906     0.20007792     0.03999867
O       2.50819148     3.78358666     3.93509399     0.44398906    -0.20007792    -0.03999867
O       0.36415624     1.43384201     3.39633540     0.44338948    -0.20064125     0.04051803
O       0.82936036     3.26559594     1.49128354    -0.44338948     0.20064125    -0.04051803
