# total energy = -19938.63320064 eV

CRYSTAL
PRIMVEC
        5.60180228     0.00000000     0.00000000
        2.80567640     5.26058629     0.00000000
        0.00000000     0.00000000    10.37507419
PRIMCOORD
24 1
Ti      3.69302516     3.11741857     3.84907855     2.09113503    -3.88186431     0.88744461
Ti      4.71445367     2.14316786     6.52599576    -2.09113503     3.88186431    -0.88744461
Ti      5.97422896     2.14316973     1.33841716    -4.64148930    -0.12455225     1.18070963
Ti      2.43325005     3.11741694     9.03665720     4.64148930     0.12455225    -1.18070963
Ti      2.29018718     0.48712560     1.33845877     2.09113503    -3.88186431    -0.88744461
Ti      6.11729176     4.77346103     9.03661564    -2.09113503     3.88186431     0.88744461
Ti      1.03041180     0.48712358     6.52595414     4.64148930     0.12455225     1.18070963
Ti      7.37706713     4.77346300     3.84912011    -4.64148930    -0.12455225    -1.18070963
O       2.76093220     1.85234190     5.29432097     1.11632301     1.80606720    -1.28679930
O       5.64654670     3.40824457     5.08075334    -1.11632301    -1.80606720     1.28679930
O       2.01586582     1.85236308     0.10681721     1.23824554    -1.05879070     0.72255379
O       6.39161314     3.40822343    10.26825676    -1.23824554     1.05879070    -0.72255379
O       4.24370860     0.77795139     0.10678354    -1.11632301    -1.80606720    -1.28679930
O       4.16377028     4.48263502    10.26829043     1.11632301     1.80606720     1.28679930
O       4.98877505     0.77793026     5.29435458    -1.23824554     1.05879070     0.72255379
O       3.41870379     4.48265622     5.08071967     1.23824554    -1.05879070    -0.72255379
O       1.91009784     3.19978675     2.80256638     0.63589318     1.39332554     1.38685844
O       6.49738105     2.06079971     7.57250787    -0.63589318    -1.39332554    -1.38685844
O       4.10351765     2.06075058     2.38500373     1.47515042     0.73086668     0.02925377
O       4.30396125     3.19983589     7.99007036    -1.47515042    -0.73086668    -0.02925377
O       0.50725975     0.56949358     2.38497061     0.63589318     1.39332554    -1.38685844
O       7.90021913     4.69109283     7.99010347    -0.63589318    -1.39332554     1.38685844
O       2.90112315     0.56954271     7.57254093    -1.47515042    -0.73086668     0.02925377
O       5.50635573     4.69104370     2.80253326     1.47515042     0.73086668    -0.02925377
