# total energy = -19937.48080523 eV

CRYSTAL
PRIMVEC
        5.94020396     0.00000000     0.00000000
        1.85494603     6.04392668     0.00000000
        0.00000000     0.00000000    10.75603694
PRIMCOORD
24 1
Ti      3.25227750     3.58162539     3.99041299     0.16292958    -2.27596553     0.87178273
Ti      4.54287239     2.46230144     6.76562401    -0.16292958     2.27596553    -0.87178273
Ti      5.87874952     2.46230351     1.38756254    -0.70294295    -0.69370703     0.14902994
Ti      1.91640046     3.58162354     9.36847458     0.70294295     0.69370703    -0.14902994
Ti      2.32480462     0.55966214     1.38760566     0.16292958    -2.27596553    -0.87178273
Ti      5.47034530     5.48426485     9.36843146    -0.16292958     2.27596553     0.87178273
Ti      0.98892746     0.55965989     6.76558088     0.70294295     0.69370703     0.14902994
Ti      6.80622245     5.48426711     3.99045611    -0.70294295    -0.69370703    -0.14902994
O       2.53327006     2.12816937     5.48872332     1.70627288     2.03549531    -0.75734648
O       5.26187984     3.91575751     5.26731368    -1.70627288    -2.03549531     0.75734648
O       1.74319016     2.12819376     0.11073945    -0.43308192    -0.26890741     1.12308270
O       6.05195981     3.91573317    10.64529725     0.43308192     0.26890741    -1.12308270
O       4.33440693     0.89379409     0.11070455    -1.70627288    -2.03549531    -0.75734648
O       3.46074296     5.15013279    10.64533214     1.70627288     2.03549531     0.75734648
O       5.12448690     0.89376976     5.48875822     0.43308192     0.26890741     1.12308270
O       2.67066295     5.15015719     5.26727878    -0.43308192    -0.26890741    -1.12308270
O       1.34410468     3.67625887     2.90547392     0.46670939     1.76161101     1.73555056
O       6.45104521     2.36766801     7.85056308    -0.46670939    -1.76161101    -1.73555056
O       3.91258050     2.36761165     2.47257879     0.89885440     1.53112001     0.70359935
O       3.88256939     3.67631523     8.28345803    -0.89885440    -1.53112001    -0.70359935
O       0.41663172     0.65429546     2.47254443     0.46670939     1.76161101    -1.73555056
O       7.37851812     5.38963143     8.28349239    -0.46670939    -1.76161101     1.73555056
O       2.95509649     0.65435181     7.85059737    -0.89885440    -1.53112001     0.70359935
O       4.84005341     5.38957507     2.90543956     0.89885440     1.53112001    -0.70359935
