# total energy = -4986.78837661 eV

CRYSTAL
PRIMVEC
        4.01517167     0.00000000     0.00000000
        1.71975664     3.62822830     0.00000000
       -2.86750217    -1.81413820     5.26585696
PRIMCOORD
6 1
Ti      1.28971606     2.72131087     1.31646419     0.00089372    -0.00089372     0.00000000
Ti      1.57771036    -0.90722055     3.94939245    -0.00089372     0.00089372     0.00000000
O       0.42998087     0.90705231     0.85776501    -0.00042449    -0.00062786    -2.08859940
O       2.43744541     0.90703787     4.40809168     0.00042449     0.00062786     2.08859940
O      -0.42994469    -0.90702947     3.49069332    -0.00062786    -0.00042449    -2.08859940
O       3.29737090     2.72111961     1.77516337     0.00062786     0.00042449     2.08859940
