# total energy = -19957.44359685 eV

CRYSTAL
PRIMVEC
        5.35761686     0.00000000     0.00000000
        1.12916150     5.58920545     0.00000000
        0.00000000     0.00000000     9.63773996
PRIMCOORD
24 1
Ti      2.61101840     3.31215797     3.57553291     0.68585128    -1.56271734     0.83356635
Ti      3.87575970     2.27704761     6.06220743    -0.68585128     1.56271734    -0.83356635
Ti      5.08062009     2.27704961     1.24329875    -1.24339906    -0.44486118     0.47569694
Ti      1.40615803     3.31215619     8.39444169     1.24339906     0.44486118    -0.47569694
Ti      2.04643778     0.51755546     1.24333740     0.68650228    -1.56279704    -0.84041475
Ti      4.44034033     5.07165029     8.39440305    -0.68650228     1.56279704     0.84041475
Ti      0.84157732     0.51755330     6.06216879     1.24302831     0.44569036     0.47366191
Ti      5.64520080     5.07165245     3.57557155    -1.24302831    -0.44569036    -0.47366191
O       2.09331643     1.96805428     4.91806508     0.77458677     1.11546504    -0.57997244
O       4.39346167     3.62115130     4.71967526    -0.77458677    -1.11546504     0.57997244
O       1.38072166     1.96807679     0.09922595    -0.08187990    -0.23623896     0.55090302
O       5.10605649     3.62112884     9.53851412     0.08187990     0.23623896    -0.55090302
O       3.82888104     0.82654862     0.09919466    -0.77454357    -1.11573500    -0.57918157
O       2.65789706     4.76265696     9.53854540     0.77454357     1.11573500     0.57918157
O       4.54147586     0.82652616     4.91809636     0.08264583     0.23634309     0.55164119
O       1.94530219     4.76267948     4.71964398    -0.08264583    -0.23634309    -0.55164119
O       0.88147459     3.39967152     2.60339410     0.02543619     0.44023293     0.35622082
O       5.60530351     2.18953406     7.03434624    -0.02543619    -0.44023293    -0.35622082
O       3.31580448     2.18948185     2.21550673     0.82363341     0.33254481    -0.23801096
O       3.17097361     3.39972373     7.42223344    -0.82363341    -0.33254481     0.23801096
O       0.31689395     0.60506884     2.21547593     0.02600543     0.44088419    -0.35628638
O       6.16988415     4.98413679     7.42226424    -0.02600543    -0.44088419     0.35628638
O       2.60639297     0.60512099     7.03437698    -0.82328399    -0.33283663    -0.23872882
O       3.88038512     4.98408459     2.60336330     0.82328399     0.33283663     0.23872882
