# total energy = -4981.47847294 eV

CRYSTAL
PRIMVEC
        4.56377807     0.00000000     0.00000000
       -0.00000741     3.04251836     0.00000000
       -2.28191593    -1.52130561     5.05589915
PRIMCOORD
6 1
Ti     -0.00019614     2.28199930     1.26397452    -0.00724383    -0.00936782    13.06242786
Ti      2.28205093    -0.76078686     3.79192394     0.00724383     0.00936782   -13.06242786
O       0.00004803     0.76062133     0.82356453     0.00479100     0.00935856    -6.03813877
O       2.28180665     0.76059106     4.23233398    -0.00479100    -0.00935856     6.03813877
O      -0.00001956    -0.76062413     3.35151400    -0.00209545    -0.00018023    -1.31111629
O       2.28187418     2.28183646     1.70438456     0.00209545     0.00018023     1.31111629
