# total energy = -4990.24329057 eV

CRYSTAL
PRIMVEC
        3.11515323     0.00000000     0.00000000
        0.00000000     4.41612332     0.00000000
        0.00000000    -0.00006041     4.66020104
PRIMCOORD
6 1
Ti      1.55757661     2.20803130     2.33010052     0.00000000     0.00000000     0.00000000
Ti      0.00000000     0.00000000     0.00000000     0.00000000     0.00000000     0.00000000
O       1.55757661     0.86062556     0.90820453     0.00000000     0.05350648    -0.04445902
O       1.55757661     3.55543699     3.75199645     0.00000000    -0.05350648     0.04445902
O       0.00000000     1.34738127     3.23830600     0.00000000    -0.05309561    -0.04497504
O       0.00000000     3.06868133     1.42189499     0.00000000     0.05309561     0.04497504
