# total energy = -19075.26943252 eV

CRYSTAL
PRIMVEC
        7.60600008     0.00000000     0.00000000
        0.00000000     7.60600008     0.00000000
       -1.89786986    -1.89786986     4.85670466
PRIMCOORD
22 1
Ti      3.76463199     6.61007501     1.19622401     0.10595263     0.11218807     0.31461933
Ti      3.80283600     2.78796801     1.20643099     1.04115498     0.70767018     0.98629894
Ti      0.14207298     6.77330603     1.03549600    -0.22421725    -1.30186520     0.81023358
Ti      0.08971899     2.85863403     0.98307602    -0.96606203     0.87271244     1.64610622
Ti      5.75461722     2.82133020     3.56729984    -1.11312456     0.61912059    -0.43187427
Ti      6.08247825    -0.90205078     3.62353582    -1.28397057    -0.57020739    -0.57718279
Ti      1.85598623     2.80783423     3.74482780     1.41791224    -0.65450155    -0.88245024
Ti      1.15270024    -0.96714980     3.97690679     3.17230205     0.18795182    -2.66168231
O       3.87685001     4.75158699     0.81312403    -0.36672429    -0.32594453     0.31047908
O       3.83518899     0.90906100     0.79673599     0.06214436    -0.25891995     2.29415841
O       0.15627499     4.76809102     0.66029102     0.29502905    -0.18376684     0.12044132
O      -0.07853498     1.00938200     0.71067801     0.39926007     0.21035797     0.77439085
O       5.55823124     4.85424420     4.06736181     0.71265864    -0.07758410    -1.75455616
O       5.44009924     0.92274923     3.87539879     1.34163709    -0.06546545     0.40477458
O       1.83836224     4.78131421     4.20360283    -0.78004419     0.09566847    -0.91669143
O       2.14334720     0.84974822     4.12765679    -1.81614953     0.28464154    -0.22302734
O       3.80571620     2.85731622     3.30169080    -0.48396741     0.39824372    -0.88668536
O       0.10461120     2.85186421     3.12373680    -0.46752057    -0.17191173     0.50704307
O       5.93693202     6.63007298     1.74788600    -1.07275205     0.00344297     0.05188797
O       5.74821000     2.94791999     1.64750600     0.12089846    -0.27622811    -0.31118176
O       1.92792301     6.61989601     1.93571202    -0.32670094     0.15955449     0.51023947
O       1.92651100     2.73726198     1.50689397     0.23228434     0.23484285    -0.08534137
