# total energy = -19517.08041251 eV

CRYSTAL
PRIMVEC
        7.60600008     0.00000000     0.00000000
        0.00000000     7.60600008     0.00000000
       -1.89786986    -1.89786986     4.85670466
PRIMCOORD
23 1
Ti      3.83494499     6.67129600     1.11785498     0.79396004    -1.58823272     0.12022226
Ti      3.86688899     2.73949199     1.20304198    -1.45599081     2.31320386     0.04323286
Ti      0.20199399     6.72604499     1.20784601    -1.82912152    -0.69935600    -0.63730138
Ti     -0.00796798     2.82624801     1.15411002    -0.13205114     0.87639812     1.93581797
Ti      5.50715621     2.81392823     3.73718182    -0.00504502     1.20497700     1.77547363
Ti      5.72408422    -0.94913475     3.47081283    -0.11342709    -0.31699734     1.16593530
Ti      1.91670021     2.90023821     3.61847382     0.30964835    -0.91153226     1.53573437
Ti      1.98763325    -0.88625775     3.60560380    -0.82245713    -0.04357816     0.33621094
O       3.87320900     4.64827301     0.71928598    -0.38018274     0.14527381     1.72487456
O       3.72677402     0.94551200     0.68777400     0.13941632    -0.39683501     0.29901247
O      -0.12069798     4.75411100     1.08208000     0.60973683     0.04707306    -0.54343782
O       0.10182101     1.05088098     0.73906699     0.00502085    -2.61813681     0.10552814
O       5.43503724     4.68692121     4.15503981     1.71396845     1.64760414    -0.45946608
O       5.57793521     1.00588721     4.21351580     0.16001446    -0.57018527    -2.49664314
O       1.80352624     4.67108722     4.12145881    -0.43305518     1.95195293    -1.83286093
O       1.85478325     0.97275124     4.13806079     0.07581106    -1.04069013    -1.07662388
O       3.73511523     2.90801023     3.51557281    -0.40879090    -0.36336360    -1.37843525
O       3.80583220    -0.88315677     3.21948179    -0.38883707     0.12646644    -0.19892118
O      -0.00020580    -0.66728876     3.21370482     0.26526081    -0.86041408    -1.01809244
O       5.62534499     6.65134702     1.48585198     1.42272843     0.39614621     1.54991607
O       5.58891399     2.64855002     1.90945599     2.04335054    -0.13585894    -1.64252184
O       1.99804598     6.45014700     1.41822202    -1.41270241     0.59291126     1.53740739
O       1.85768102     2.73517602     1.76889101    -0.15725541     0.24317348    -0.84506124
