# total energy = -39034.03628935 eV

CRYSTAL
PRIMVEC
        7.60600008     0.00000000     0.00000000
        0.00000000     7.60600008     0.00000000
       -3.79573973    -3.79573973     9.71340985
PRIMCOORD
46 1
Ti      1.93923946     4.80807846     6.15097760    -0.47975569    -1.20937179     1.14996642
Ti      3.68758199     6.97170098     1.22312299    -0.81404190    -3.01786945    -0.07386165
Ti      2.05146944     0.63953447     6.04843262     0.07297076     0.93442897     0.89823579
Ti      3.60996899     2.71365502     1.19873999     1.83352171     2.26373427    -0.84732664
Ti     -1.88020953     4.68933548     6.11269660     0.67480607     0.83266595    -0.18602350
Ti     -0.20541401     6.66547499     1.28607201     0.47767721     0.18203391    -0.34511082
Ti     -1.78103155     0.99663142     6.07064764     0.04532779    -0.58059208    -0.30967998
Ti     -0.01969698     2.83070998     1.13516500    -0.81233572     1.09549681    -0.22669296
Ti      3.94503645     1.14580146     8.43877960    -0.68166604    -2.80710062    -0.27452656
Ti      5.69824101     2.83156597     3.46568500    -0.14333571     0.31203819     0.21699476
Ti      3.84597447    -2.77926553     8.47283761     1.13637634     1.21421189     1.41983106
Ti      5.61009701    -0.92681802     3.69784601     0.06568888    -0.68749370     0.86294944
Ti      0.14801744     0.94847344     8.36621062     0.28510279     0.72540849    -1.58783831
Ti      1.86198699     2.66678801     3.59184202    -0.15479769    -0.66343254    -0.30624190
Ti      0.08698044    -2.78417556     8.48748164    -0.83562092     0.27522564    -1.00598434
Ti      1.79906797    -1.21837400     3.66646702     0.68877899     1.48286502     0.19368436
O       1.62799047    -1.09660957     5.81220261    -0.26467409    -0.45659184    -1.74229122
O       3.44272400     1.00952700     0.66645001     0.21718888     0.85962192    -0.80613164
O      -1.94001153     2.86610347     5.82573261    -0.53940453    -0.41313195    -1.09317125
O      -0.33322598     4.75866098     0.89545400     0.59733742     2.84365324    -0.10903898
O      -1.61939753    -1.04174257     5.75293963    -0.54976171     0.70270075    -1.78553359
O       0.07634303     1.07710097     0.90849801    -0.43734507    -1.94293967    -1.67350133
O       3.83657745     2.92580244     8.86694062    -0.39379236     0.72194881     0.74869626
O       5.94468102     4.70932202     3.88541300    -1.08164088     0.57090184     0.74988488
O       4.00872045    -0.71281456     8.95175260     0.05509902    -1.98610748     0.30175481
O       5.65857198     0.98891099     4.07224098    -0.06979648    -0.44592844     0.30149924
O       0.02195747     2.72575846     8.96226661     0.37780370     1.03751482     1.35369300
O       2.00141900     4.40713901     4.29897602    -0.49188667     0.70712768    -0.69992627
O      -0.12572553    -0.79299052     8.64813562     0.23821382    -2.39804824     1.78291415
O       1.97191102     0.81345402     4.19445002     0.00343577     1.61428006    -1.00863412
O       2.02087945     0.61580642     7.95056761    -0.57037297     1.65204418     1.37482311
O       3.77751100     2.83089302     3.06080699    -0.79622852    -0.16592672     1.72296372
O       2.01158646    -2.62413156     8.15622663    -2.20119525    -0.61054004     0.32781835
O       3.66984100    -1.04910898     3.58098500     1.40122475    -0.29892068    -0.97545350
O      -1.83873357     1.04207944     7.99959863     0.28423685     0.52932195     0.42753630
O      -0.05696000     2.78678700     3.09445700     1.06859535    -0.28188994     1.25243829
O      -1.96226058    -2.78721155     8.06880163     1.97744774    -0.33154593     0.21070250
O       0.03440800    -0.67952100     3.10521702    -1.97980930    -1.31132815     1.17277289
O       3.84432243     4.95903347     6.57099061    -0.90800162    -0.66486927    -1.30230743
O       5.49343200    -0.58269300     1.59590799     1.24786353    -0.66021480     1.04017025
O       3.91268245     0.63528845     6.48363260    -0.10149074     1.12778062    -0.45285911
O       5.56063899     2.61239198     1.57922398     0.73919166     0.66164536    -0.64809487
O       0.00788146     4.48885847     6.52793061     1.46524370     0.00406980     0.56527189
O       1.90564602    -0.50088299     1.83027202     0.17942116    -2.38863620    -0.54248548
O       0.12047747     1.03748745     6.34566265     0.08546607     0.40888757     0.65306327
O       1.87827999     3.00895698     1.68415401    -0.91106612     0.56287100    -0.72494929
