# total energy = -19949.06246685 eV

CRYSTAL
PRIMVEC
        4.92915264     0.00000000     0.00000000
        1.29137518     5.08468380     0.00000000
        0.00000000     0.00000000     8.89292031
PRIMCOORD
24 1
Ti      2.55184854     3.01317906     3.29921017     2.23531740    -1.54889765     0.78404097
Ti      3.66867942     2.07150507     5.59371063    -2.23531740     1.54889765    -0.78404097
Ti      4.77718375     2.07150683     1.14721472    -3.94020163    -0.12489884     1.79316489
Ti      1.44334424     3.01317750     7.74570618     3.94020163     0.12489884    -1.79316489
Ti      1.90616106     0.47083720     1.14725038     2.23565885    -1.54932189    -0.77130270
Ti      4.31436693     4.61384713     7.74567053    -2.23565885     1.54932189     0.77130270
Ti      0.79765665     0.47083525     5.59367498     3.94096833     0.12511121     1.77604827
Ti      5.42287133     4.61384903     3.29924583    -3.94096833    -0.12511121    -1.77604827
O       2.01482309     1.79040371     4.53798937    -0.98105054    -0.20010800    -0.81114272
O       4.20570482     3.29428042     4.35493143     0.98105054     0.20010800     0.81114272
O       1.35921761     1.79042423     0.09155762     1.21314308    -0.96680122    -0.17794612
O       4.86131042     3.29425999     8.80136293    -1.21314308     0.96680122     0.17794612
O       3.56001732     0.75193841     0.09152877     0.98086619     0.19975088    -0.81107922
O       2.66051065     4.33274572     8.80139179    -0.98086619    -0.19975088     0.81107922
O       4.21562291     0.75191793     4.53801823    -1.21318319     0.96696218    -0.17796231
O       2.00490501     4.33276626     4.35490258     1.21318319    -0.96696218     0.17796231
O       0.96457510     3.09279304     2.40219977    -0.50427451    -1.14495920    -1.53655378
O       5.25595281     1.99189110     6.49072103     0.50427451     1.14495920     1.53655378
O       3.14954925     1.99184368     2.04428893     1.18032037    -1.67580324    -1.84321991
O       3.07097872     3.09284050     6.84863172    -1.18032037     1.67580324     1.84321991
O       0.31888760     0.55045103     2.04426053    -0.50445577    -1.14465889     1.53640029
O       5.90164037     4.53423315     6.84866013     0.50445577     1.14465889    -1.53640029
O       2.42529121     0.55049844     6.49074939    -1.18007945     1.67574410    -1.84308853
O       3.79523675     4.53418569     2.40217137     1.18007945    -1.67574410     1.84308853
