# total energy = -19881.92970814 eV

CRYSTAL
PRIMVEC
        9.31117903     0.00000000     0.00000000
        0.00003049     4.24710426     0.00000000
        0.00000000     0.00000000    14.17088673
PRIMCOORD
24 1
Ti      3.37487248     2.51683007     5.25729791     0.30699266    -0.36831504     2.70506944
Ti      5.93633664     1.73027426     8.91358903    -0.30699266     0.36831504    -2.70506944
Ti      8.03030262     1.73027570     1.82808888     0.30623418     0.36960804    -2.70465678
Ti      1.28090649     2.51682876    12.34279819    -0.30623418    -0.36960804     2.70465678
Ti      3.37485743     0.39327801     1.82814573     0.30677617    -0.36938616    -2.70358488
Ti      5.93635168     3.85382639    12.34274134    -0.30677617     0.36938616     2.70358488
Ti      1.28089145     0.39327643     8.91353218    -0.30624575    -0.36842354    -2.70601458
Ti      8.03031766     3.85382797     5.25735476     0.30624575     0.36842354     2.70601458
O       2.94705758     1.49547759     7.23129508     0.80529269     1.10350117    -2.50778708
O       6.36415153     2.75162666     6.93959185    -0.80529269    -1.10350117     2.50778708
O       1.70860763     1.49549473     0.14589721    -0.80552229     1.10375160    -2.50883146
O       7.60260155     2.75160960    14.02498932     0.80552229    -1.10375160     2.50883146
O       6.36413656     0.62807453     0.14585124    -0.80502581    -1.10357702    -2.50746672
O       2.94707255     3.61902979    14.02503529     0.80502581     1.10357702     2.50746672
O       7.60258658     0.62805740     7.23134105     0.80550121    -1.10371303    -2.50859003
O       1.70862247     3.61904692     6.93954589    -0.80550121     1.10371303     2.50859003
O       0.33831507     2.58332955     3.82791007    -2.15913842     0.65739430    -0.02928076
O       8.97289404     1.66377471    10.34297686     2.15913842    -0.65739430     0.02928076
O       4.99391643     1.66373514     3.25757845    -2.15825164    -0.65714722     0.02981607
O       4.31729268     2.58336918    10.91330828     2.15825164     0.65714722    -0.02981607
O       0.33830010     0.45977742     3.25753323    -2.15866405     0.65702714     0.02995593
O       8.97290901     3.78732691    10.91335350     2.15866405    -0.65702714    -0.02995593
O       4.31727770     0.45981699    10.34302202     2.15847713     0.65721226     0.02899460
O       4.99393141     3.78728734     3.82786485    -2.15847713    -0.65721226    -0.02899460
