# total energy = -19074.70132537 eV

CRYSTAL
PRIMVEC
        7.60600008     0.00000000     0.00000000
        0.00000000     7.60600008     0.00000000
       -1.89786986    -1.89786986     4.85670466
PRIMCOORD
22 1
Ti      3.82935101     6.71573900     1.06222501     1.50565631     0.85502402     1.32256182
Ti      3.74885500     2.98875601     1.14768602    -0.28057945    -0.66028011     1.72910326
Ti      0.16799298     6.70487298     1.24803401    -1.01087278    -0.56008546     0.39215431
Ti     -0.14595000     2.77100502     1.31179802     0.36031402     1.39919872    -0.84605189
Ti      5.69669221     2.99062623     3.64388883    -2.62216419     0.67502153     0.40144603
Ti      5.65775122    -1.04207076     3.73703180    -0.13686501     0.95477926    -1.39804815
Ti      1.65722625     2.89764921     3.62818681     1.96796500    -0.71915968    -1.20499962
Ti      1.65085220    -0.87480577     3.72858581     0.05339463     0.80749459     1.00102905
O       3.50201699     4.92867197     0.64932202     0.15557160    -1.62016197     1.24628513
O       3.74203898     1.05253202     0.96974800     0.34076360    -0.52797032    -1.14009416
O       0.21892100     4.86335600     0.69056700    -0.93524324    -0.83331824     0.78374195
O       7.23995199     0.98067398     0.77314601     0.18029713    -0.14551472     0.38601297
O      -1.44982178     4.88540422     4.06798783    -0.62177371    -2.16623004     0.96224549
O      -0.16866175    -0.78873779     3.39051384     2.62033485     1.14797356    -0.52817755
O       1.72134422     4.80503124     3.96739181     0.12683077     0.78383014    -0.21933112
O       2.09851324     0.97263022     4.11476281    -0.54385743     0.26789002    -0.49041188
O       3.77488925     2.91075523     3.19681782     0.60626532     0.26570150     0.47614766
O      -0.25400577     2.36680521     3.24967082     2.14598028    -0.08210204    -0.51315819
O       5.72915999     6.51584499     1.79649898    -1.97919764     0.34405101    -1.42176530
O       5.64271798     3.16133701     1.52168601     0.42090208     0.22128156     0.28799143
O       2.12033302     6.82229397     1.94064400    -1.06266433    -0.16945530    -1.04540399
O       1.84002698     2.93137500     1.67001699    -1.29105833    -0.23796777    -0.18127698
