# total energy = -4987.41557943 eV

CRYSTAL
PRIMVEC
        3.83975155     0.00000000     0.00000000
        1.64462165     3.46971347     0.00000000
       -2.74222295    -1.73487973     5.03579525
PRIMCOORD
6 1
Ti      1.23336924     2.60241865     1.25894876     0.00061964    -0.00061964     0.00000000
Ti      1.50878127    -0.86758470     3.77684618    -0.00061964     0.00061964    -0.00000000
O       0.41119529     0.86742381     0.82028983    -0.00013524    -0.00019309    -2.19855139
O       2.33095507     0.86741000     4.21550515     0.00013524     0.00019309     2.19855139
O      -0.41116070    -0.86740197     3.33818730    -0.00019309    -0.00013524    -2.19855139
O       3.15331100     2.60223574     1.69760768     0.00019309     0.00013524     2.19855139
