# total energy = -19959.11318552 eV

CRYSTAL
PRIMVEC
        7.60600008     0.00000000     0.00000000
        0.00000000     7.60600008     0.00000000
       -1.89786986    -1.89786986     4.85670466
PRIMCOORD
24 1
Ti      3.89286302     6.81816898     1.02932198    -2.03787512     0.38874554     0.95088121
Ti      3.78426399     2.95382100     1.24807402     0.92831000    -1.15207447    -1.50969397
Ti     -0.14632100     6.64323399     1.24889202     2.19649836    -2.12862095    -0.14346555
Ti     -0.02333100     2.59948100     1.23811199    -0.08472174     3.38516941     2.04729539
Ti      5.53990721     2.80691520     3.75188581     1.46150017    -1.29098686     0.13883397
Ti      5.69914124    -1.00353380     3.66928981    -0.71967364     1.04552278    -0.41628670
Ti      1.91921825     2.90538223     3.60929683    -1.89860664    -0.61723185     0.78377281
Ti      1.92912424    -0.81689679     3.49318084     1.40817444     0.30864974     0.30710296
O       3.95406602     4.90156799     0.73703601    -0.16771698    -1.75071981     1.10714803
O       4.11097602     1.16775698     0.54975198    -0.69604236    -2.26795834     1.54733725
O      -0.18092999     4.67483501     0.88109801     0.02748202     1.23958226    -0.10520727
O      -0.19638101     0.91321901     0.80932601     0.27279080    -2.43962968    -0.56728327
O       5.65638224     4.68521821     4.14419279    -0.58295132     0.63905616    -0.68857151
O       5.80539824     0.85576121     4.23505083     0.05751097    -0.33251858    -1.37771534
O       2.18319721     4.80436422     4.03686379    -0.12552207     0.34303208    -1.85665265
O       1.91816424     0.97773223     4.14908180    -0.89192964     1.26046965    -0.57215217
O       3.72660420     2.33578822     3.33051281     1.84449621     2.00063473    -1.15283681
O       3.80886624    -0.78820475     3.02348480     0.72293431    -0.49854094     0.99785476
O       0.01994220     2.68259120     3.40099382     0.22664617     0.68915206    -0.57519893
O       0.10009023    -1.04603880     3.39139984    -2.15772097    -0.07965692    -1.74351841
O       5.67120502     6.93450299     1.67719798     1.87447580    -0.88970461     0.63444719
O       5.77089001     2.71293798     1.74697100    -1.92249888     0.98597112     0.85503739
O       1.92158701     6.76639100     1.31936102    -0.61989912     0.28547355     1.46164286
O       1.89580898     2.65485702     1.65151399     0.88433872     0.87618369    -0.12277151
