# total energy = -4922.40524553 eV

CRYSTAL
PRIMVEC
        4.69783893     0.00000000     0.00000000
       -0.00000649     2.26192230     0.00000000
       -2.34894578    -1.13102435     5.06108462
PRIMCOORD
6 1
Ti     -0.00020070     1.69651673     1.26527089    -0.04719210    -0.03335879    63.26448681
Ti      2.34908730    -0.56561892     3.79581310     0.04719210     0.03335879   -63.26448681
O       0.00004999     0.56546973     0.82440921     0.04876125     0.03372260   -52.22356153
O       2.34883647     0.56542799     4.23667483    -0.04876125    -0.03372260    52.22356153
O      -0.00001919    -0.56549545     3.35495142    -0.00048645     0.00054816     0.37500556
O       2.34890560     1.69639316     1.70613262     0.00048645    -0.00054816    -0.37500556
