# total energy = -19911.53008739 eV

CRYSTAL
PRIMVEC
        8.04053139     0.00000000     0.00000000
        0.00002829     4.60791532     0.00000000
        0.00000000     0.00000000    12.16465195
PRIMCOORD
24 1
Ti      2.91432277     2.73064650     4.51299928     0.42131860    -0.37968651     2.48307825
Ti      5.12623710     1.87726920     7.65165318    -0.42131860     0.37968651    -2.48307825
Ti      6.93445067     1.87727083     1.56927839     0.42124507     0.38072730    -2.48392183
Ti      1.10610920     2.73064499    10.59537420    -0.42124507    -0.38072730     2.48392183
Ti      2.91430875     0.42668890     1.56932714     0.42131860    -0.37968651    -2.48307825
Ti      5.12625112     4.18122693    10.59532544    -0.42131860     0.37968651     2.48307825
Ti      1.10609518     0.42668708     7.65160443    -0.42124507    -0.38072730    -2.48392183
Ti      6.93446469     4.18122868     4.51304803     0.42124507     0.38072730     2.48392183
O       2.54488899     1.62252539     6.20752898     0.99090558     1.28416315    -1.97848673
O       5.49567088     2.98539025     5.95712348    -0.99090558    -1.28416315     1.97848673
O       1.47544377     1.62254396     0.12524189    -0.99073666     1.28408756    -1.97865745
O       6.56511617     2.98537174    12.03941019     0.99073666    -1.28408756     1.97865745
O       5.49565686     0.68143259     0.12520243    -0.99090558    -1.28416315    -1.97848673
O       2.54490301     3.92648312    12.03944965     0.99090558     1.28416315     1.97848673
O       6.56510215     0.68141402     6.20756844     0.99073666    -1.28408756    -1.97865745
O       1.47545760     3.92650168     5.95708396    -0.99073666     1.28408756     1.97865745
O       0.29214830     2.80279534     3.28597608    -2.24687452     0.74785088     0.31056624
O       7.74841157     1.80512036     8.87867637     2.24687452    -0.74785088    -0.31056624
O       4.31242392     1.80507727     2.79638878    -2.24655261    -0.74777478    -0.31076010
O       3.72813596     2.80283843     9.36826342     2.24655261     0.74777478     0.31076010
O       0.29213428     0.49883762     2.79634995    -2.24687452     0.74785088    -0.31056624
O       7.74842559     4.10907808     9.36830225     2.24687452    -0.74785088     0.31056624
O       3.72812194     0.49888070     8.87871514     2.24655261     0.74777478    -0.31076010
O       4.31243794     4.10903500     3.28593726    -2.24655261    -0.74777478     0.31076010
