# total energy = -19961.28856426 eV

CRYSTAL
PRIMVEC
        5.30514632     0.00000000     0.00000000
        0.00002908     5.64627998     0.00000000
        0.00000000     0.00000000     9.49504538
PRIMCOORD
24 1
Ti      1.92287761     3.34598029     3.52259418     0.00434954    -0.20581354     0.19183445
Ti      3.38229779     2.30029974     5.97245147    -0.00434954     0.20581354    -0.19183445
Ti      4.57535789     2.30030168     1.22489070     0.01176717     0.20577780    -0.18866762
Ti      0.72981750     3.34597857     8.27015505    -0.01176717    -0.20577780     0.18866762
Ti      1.92286318     0.52284041     1.22492878     0.00410785    -0.20528569    -0.18919135
Ti      3.38231222     5.12343979     8.27011698    -0.00410785     0.20528569     0.18919135
Ti      0.72980307     0.52283831     5.97241339    -0.01170547    -0.20657793    -0.19190053
Ti      4.57537232     5.12344189     3.52263226     0.01170547     0.20657793     0.19190053
O       1.67912254     1.98815122     4.84524908     0.37472763     0.33134976     0.02494588
O       3.62605285     3.65812887     4.64979657    -0.37472763    -0.33134976    -0.02494588
O       0.97350211     1.98817396     0.09775682    -0.37497162     0.33056454     0.02484586
O       4.33167334     3.65810613     9.39728856     0.37497162    -0.33056454    -0.02484586
O       3.62603842     0.83498883     0.09772601    -0.37468829    -0.33101140     0.02478159
O       1.67913697     4.81129121     9.39731937     0.37468829     0.33101140    -0.02478159
O       4.33165891     0.83496608     4.84527988     0.37411493    -0.32977753     0.02440801
O       0.97351643     4.81131401     4.64976576    -0.37411493     0.32977753    -0.02440801
O       0.19276590     3.43438757     2.56484870     0.12737353    -0.07374415     0.09100474
O       5.11240949     2.21189247     6.93019695    -0.12737353     0.07374415    -0.09100474
O       2.84534331     2.21183985     2.18270431     0.12669141     0.07409768    -0.09256181
O       2.45983208     3.43444019     7.31234117    -0.12669141    -0.07409768     0.09256181
O       0.19275147     0.61124752     2.18267399     0.12706397    -0.07380406    -0.09278909
O       5.11242392     5.03503251     7.31237149    -0.12706397     0.07380406     0.09278909
O       2.45981765     0.61130014     6.93022722    -0.12746840    -0.07343588    -0.09035066
O       2.84535774     5.03497989     2.56481837     0.12746840     0.07343588     0.09035066
