# total energy = -4987.24542507 eV

CRYSTAL
PRIMVEC
        4.18521670     0.00000000     0.00000000
        0.82874708     4.10234288     0.00000000
       -2.50702002    -2.05120264     5.36844515
PRIMCOORD
6 1
Ti      0.62141604     3.07691404     1.34211143    -0.00040315     0.00040315     0.00000000
Ti      1.88552773    -1.02577379     4.02633389     0.00040315    -0.00040315     0.00000000
O       0.20723062     1.02557972     0.87447591    -0.00061424    -0.00156503    -1.17474698
O       2.29971302     1.02556042     4.49396947     0.00061424     0.00156503     1.17474698
O      -0.20720315    -1.02555725     3.55869837    -0.00156503    -0.00061424    -1.17474698
O       2.71414667     3.07669729     1.80974695     0.00156503     0.00061424     1.17474698
