# total energy = -19517.34175811 eV

CRYSTAL
PRIMVEC
        5.93400000     0.00000000     0.00000000
        0.00000000     9.29699974     0.00000000
        0.00000000     0.00000000     4.64899994
PRIMCOORD
23 1
Ti      4.58716998     7.17862601     2.25487400     0.27379302     0.43591502     0.03833156
Ti      4.33019700     2.24100998     2.33035802     0.43889544     0.16110770     0.24673986
Ti      1.51705100     6.97773900     2.23448698     0.21082257     0.81063365    -0.00624701
Ti      1.37078699     2.25595802     2.29907099    -0.11922518     0.67990020     0.19252119
Ti      3.01855298     4.48040698     0.13037298     0.65934114    -0.85579046    -0.60328310
Ti      2.87013199     9.19443202     4.59156500     1.39334740     0.55336537     0.46153581
Ti      0.07156498     4.73924398     0.08488601    -0.94742693    -1.78819263    -0.93642106
Ti      5.90024299     0.09565598     0.03344300     0.03599032     0.29683731    -0.10008486
O       4.37349498     5.60496198     0.93005098     0.07373592     0.16672607    -0.29099679
O       4.44513801     0.81107600     0.93453602     0.50733361     1.02940607     0.35433286
O       1.56636101     5.51778902     0.87122203     0.02557246     1.06543803     0.55173426
O       1.58879400     0.95309199     0.85789999    -1.08053993    -0.30380963    -0.06819134
O       4.63799999     8.21473897     3.93582300    -1.60091366     0.24511210    -1.43385154
O       4.37463900     3.68043698     3.73524498    -0.20307840     0.81717685    -0.25612079
O       1.56049402     8.32591700     3.76286200    -0.55335020    -0.59735670    -0.40805556
O       1.31979902     3.75502499     3.59831100     0.89823785     1.03165630     0.98126009
O       2.89332599     1.26223602     3.20821598     0.55195332     1.02131532    -0.47763324
O       0.11473002     6.35759401     3.17342400    -0.91501250    -2.76588531     1.19620285
O       5.88390300     1.46142500     3.25139801    -0.18746460    -0.79926757     0.01949565
O       2.98603901     8.07121499     1.58416301     0.68596261    -1.16483975     0.08521796
O       2.90020503     3.12061402     1.33618700     0.29760839     0.28065941     0.36149415
O       0.20242501     7.95498200     1.35485701    -0.65366594    -0.08813256     0.12786898
O       5.85508798     3.29475498     1.36555899     0.20808306    -0.23197478    -0.03584993
