# total energy = -78964.89145831 eV

CRYSTAL
PRIMVEC
       10.35150501     0.00002646     0.00000000
        0.00002858    11.01713167     0.00000000
        0.00000000     0.00000000     9.26345890
PRIMCOORD
94 1
Ti      7.19154197     8.68846443     3.27543332    -0.02533052    -0.00577239    -0.00207874
Ti      7.10294840     3.32732847     3.49070395    -0.01774705     0.01875903    -0.01667670
Ti      1.79813650     8.76991969     3.47011629    -0.00566491    -0.01193918     0.00686202
Ti      1.84296144     3.40040072     3.48943723    -0.00185145     0.01996025    -0.00920224
Ti      8.37218964     7.68795545     5.74179809    -0.01070068    -0.01170649     0.00672035
Ti      8.54422893     2.19393014     5.84011673    -0.01957407     0.00669850     0.01696312
Ti      3.32908844     7.64130833     5.79213167     0.01075930     0.00603490     0.00538235
Ti      3.16773977     2.26394779     5.84464230    -0.01096550    -0.00360032     0.01614216
Ti      9.74277657     7.68776763     1.10986055     0.01091382    -0.01137019     0.00683837
Ti      9.57160158     2.19417164     1.20869381     0.01940464     0.00713713     0.01684279
Ti      4.43473227     7.64084832     1.16052371    -0.01101101     0.00599530     0.00515789
Ti      4.59557052     2.26394780     1.21265654     0.01117222    -0.00336095     0.01599587
Ti      5.96566032     8.76967361     8.10189524     0.00595442    -0.01211401     0.00673501
Ti      5.92057210     3.40046785     8.12108085     0.00270403     0.02003481    -0.00925880
Ti      0.57212174     8.68859518     7.90709622     0.02547193    -0.00618736    -0.00185377
Ti      0.66034308     3.32767804     8.12268682     0.01774730     0.01847621    -0.01648900
Ti      7.04218342     6.04129021     1.18403906     0.02227142     0.01816434     0.00104310
Ti      7.01911378     0.53474553     1.19082868     0.02109025     0.01876829     0.00650335
Ti      1.89892445     6.05349369     1.22250203     0.01755498    -0.02329986     0.01214101
Ti      1.91366812     0.86070173     1.34645670    -0.00382220    -0.01832169    -0.00987690
Ti      8.47598532    10.49425835     8.07025008    -0.02221691    -0.00358181    -0.00335658
Ti      8.49506018     4.96301071     8.04692835    -0.00200186     0.01546365     0.01020754
Ti      3.48549827    10.40165893     7.92375911     0.00891839    -0.01059938     0.00840443
Ti      3.28958562     4.94108119     8.08591349    -0.01832940     0.01300593     0.01183351
Ti      5.86454679     6.05329448     5.85408608    -0.01830703    -0.02307592     0.01192041
Ti      5.84970244     0.86099748     5.97821841     0.00354375    -0.01842119    -0.01003708
Ti      0.72162150     6.04143752     5.81576895    -0.02195620     0.01778278     0.00104567
Ti      0.74482104     0.53463777     5.82271065    -0.02089922     0.01918095     0.00640154
Ti      9.63937371    10.49388047     3.43853838     0.02253007    -0.00298839    -0.00353733
Ti      9.61956753     4.96317108     3.41554089     0.00248934     0.01537572     0.01019186
Ti      4.27928529    10.40187129     3.29164357    -0.01008336    -0.01112697     0.00855124
Ti      4.47375170     4.94086568     3.45425478     0.01807255     0.01379654     0.01189830
O       6.76811055     7.47245153     4.71554282     0.00185351     0.01990677     0.01746217
O       6.84711774     1.92135141     4.71969428     0.02379377     0.01107040     0.01706493
O       1.59793025     7.43556861     4.75561842    -0.00845508    -0.01369833    -0.01999882
O       1.67785633     1.87695240     4.67925457    -0.00173678     0.00410348     0.00086826
O       8.62240206     9.12741233     4.54780553    -0.01546931    -0.02181222     0.00104644
O       8.73405462     3.58408177     4.54019795    -0.01213973    -0.00844813     0.00071580
O       3.48505483     9.09591467     4.54595860     0.02567427     0.00854121    -0.01827335
O       3.57597742     3.54055654     4.50959989     0.03461735     0.02211818    -0.00767912
O       6.16588315     7.43539612     0.12387170     0.00810952    -0.01342451    -0.01990240
O       6.08555937     1.87694393     0.04758616     0.00175992     0.00405206     0.00061835
O       0.99541615     7.47237675     0.08368708    -0.00175118     0.01982733     0.01765629
O       0.91637254     1.92121871     0.08792920    -0.02340322     0.01122878     0.01721174
O       9.49276724     9.12740162     9.17945865     0.01558295    -0.02162453     0.00092637
O       9.38097568     3.58401138     9.17192959     0.01190575    -0.00814320     0.00079010
O       4.27905875     9.09603251     9.17769834    -0.02601392     0.00875127    -0.01862559
O       4.18749602     3.54069020     9.14144291    -0.03462840     0.02189784    -0.00764569
O       8.72445098     6.33449155     0.07829912    -0.00155269    -0.01098119    -0.00408497
O       8.68803740     0.83897231     0.10300426     0.01928585    -0.00423307    -0.00922666
O       3.57557542     6.34476720     0.08720503    -0.00258756     0.00529545     0.00698569
O       3.24265003     0.58391761     0.06170609    -0.04115952    -0.00367077    -0.01049216
O       6.86564037    10.15242660     9.19115492    -0.00030725     0.00196767     0.00117962
O       6.79752695     4.67367985     9.20033393    -0.00622130    -0.00656994     0.01510549
O       1.64481627     4.69748323     9.16209242    -0.00108989    -0.00573922     0.01409814
O       9.39057415     6.33463746     4.71005482     0.00172804    -0.01101281    -0.00410965
O       9.42716255     0.83894756     4.73466717    -0.01946943    -0.00440610    -0.00901995
O       4.18806000     6.34464479     4.71904596     0.00221192     0.00568034     0.00708288
O       4.52116281     0.58388312     4.69343697     0.04146754    -0.00432177    -0.01050296
O       6.11870382     4.69743487     4.53034780     0.00095208    -0.00584746     0.01405263
O       0.89820614    10.15235791     4.55943318     0.00014964     0.00199363     0.00104952
O       0.96593863     4.67379478     4.56852318     0.00645244    -0.00655323     0.01540760
O       5.41742863     8.98809843     2.68452518     0.00158174    -0.02199502    -0.04453409
O       5.39669405     3.38709965     2.44550739     0.01616016    -0.00510493     0.01656357
O       0.15421291     8.85596545     2.49898284    -0.00234613     0.00540086     0.00971415
O       0.20247316     3.35491616     2.50086291     0.00894693     0.00209134    -0.00651158
O      10.10448634     7.59850416     6.75279235     0.00406312     0.01080764     0.01527082
O      10.19492154     2.14362642     6.78073523     0.00102279     0.01860374     0.01352864
O       4.96276039     7.66579566     6.78068895    -0.00556207    -0.01748711    -0.01746757
O       4.93210102     2.20125640     6.77407404     0.02833151    -0.03491559    -0.01365359
O       8.01073378     7.59843683     2.12112732    -0.00426520     0.01023171     0.01520551
O       7.92031995     2.14366772     2.14895560    -0.00118605     0.01872947     0.01388602
O       2.80095362     7.66578317     2.14886144     0.00526434    -0.01773702    -0.01752130
O       2.83119068     2.20112580     2.14226930    -0.02814151    -0.03519713    -0.01407834
O       7.60960398     8.85601117     7.13078591     0.00247752     0.00547825     0.00957762
O       7.56096352     3.35485116     7.13261018    -0.00899321     0.00230757    -0.00649255
O       2.34644436     8.98836853     7.31648813    -0.00169899    -0.02210430    -0.04451404
O       2.36675321     3.38722924     7.07719898    -0.01652371    -0.00484242     0.01690604
O       5.39274504     6.17032407     2.16921111     0.01115345    -0.00385691    -0.00928760
O       5.30359917     0.57872601     2.06712333    -0.03383599     0.00232068    -0.00112974
O       0.23699603     6.10471984     2.13333015     0.00522988     0.01574621    -0.02246477
O       0.15288323     0.59234386     2.12652921    -0.01723360    -0.00165862     0.00215304
O      10.24798635    10.42438668     7.20927320     0.00661468     0.00250554     0.00823139
O      10.13510671     4.90617026     7.12599869    -0.00582535    -0.00975246    -0.00495195
O       5.11061625    10.40316733     7.07907536     0.00322751    -0.01405340    -0.00559884
O       4.96844873     4.89067666     7.11353056     0.00545331     0.02491040    -0.00588140
O       7.52649621     6.10476649     6.76510077    -0.00515892     0.01587400    -0.02222077
O       7.61075816     0.59254934     6.75822075     0.01776839    -0.00154472     0.00218492
O       2.37084190     6.17041764     6.80094725    -0.01142702    -0.00416750    -0.00910762
O       2.46017412     0.57867035     6.69871870     0.03414940     0.00226669    -0.00069034
O       7.86724120    10.42429367     2.57753405    -0.00641439     0.00254102     0.00831804
O       7.97978456     4.90612073     2.49431672     0.00591251    -0.00999003    -0.00490232
O       2.65366755    10.40319646     2.44755608    -0.00293954    -0.01356437    -0.00571968
O       2.79507300     4.89067042     2.48173958    -0.00550113     0.02503921    -0.00598682
