# total energy = -4910.10695683 eV

CRYSTAL
PRIMVEC
        6.10405288     0.00000000     0.00000000
       -0.00000755     2.03468429     0.00000000
       -3.05206529    -1.01747454     6.92455952
PRIMCOORD
6 1
Ti     -0.00026124     1.52606174     1.73113946    -0.04462331    -0.02885344    85.01243656
Ti      3.05224111    -0.50885205     5.19341904     0.04462331     0.02885344   -85.01243656
O       0.00006445     0.50864902     1.12795398     0.04397231     0.02948311   -81.96241879
O       3.05191526     0.50856062     5.79660458    -0.04397231    -0.02948311    81.96241879
O      -0.00002800    -0.50873447     4.59023357    -0.00117859     0.00009744    -0.67680382
O       3.05200759     1.52594405     2.33432499     0.00117859    -0.00009744     0.67680382
