# total energy = -79406.10023596 eV

CRYSTAL
PRIMVEC
       10.35150501     0.00002646     0.00000000
        0.00002858    11.01713167     0.00000000
        0.00000000     0.00000000     9.26345890
PRIMCOORD
95 1
Ti      7.05050829     8.78442380     3.44033699    -0.06565803     0.11643836     0.09435489
Ti      7.05591487     3.25601284     3.42766552     0.16728375    -0.03557662    -0.01424237
Ti      1.87706291     8.77757355     3.44327020     0.03170480    -0.03646700    -0.05269864
Ti      1.83320909     3.21144945     3.44905659    -0.03720259     0.08690435    -0.02889870
Ti      8.47760527     7.75216500     5.82267611     0.04357559    -0.02048681    -0.00704045
Ti      8.46823714     2.24615202     5.82243074     0.05541501     0.00785729     0.00733896
Ti      3.29331549     7.75701847     5.82799745    -0.04397128    -0.08403114    -0.04009457
Ti      3.26486345     2.28109908     5.77415540     0.19042934     0.02573521     0.12490501
Ti      9.61250613     7.75949864     1.21398804    -0.23410957     0.03752424     0.07162402
Ti      9.63940112     2.24539732     1.19615137     0.03937055    -0.09591427    -0.05853324
Ti      4.47306376     7.74919012     1.20186283    -0.08730004    -0.12045057     0.02805872
Ti      4.45456120     2.27370395     1.20651420     0.01222251    -0.03958806    -0.02056523
Ti      5.88902441     8.78131308     8.07069375    -0.00311824     0.01054770     0.06779950
Ti      5.87781787     3.23699021     8.05538763     0.04657684     0.01385439    -0.06023274
Ti      0.70096178     8.82045271     8.02798420    -0.13066017     0.28401470    -0.24390753
Ti      0.70252425     3.25486204     8.06621370     0.07333997     0.12906043     0.08621838
Ti      7.03792027     6.01279602     1.19322782    -0.08538405    -0.05638174    -0.05968561
Ti      7.04355168     0.51659518     1.19226285    -0.03881493     0.02213541     0.02861536
Ti      1.79778434     6.15981503     1.03674748     0.04488994    -0.01297148     0.12404472
Ti      1.87857774     0.50903266     1.18373983    -0.01922363    -0.05243767    -0.01799207
Ti      8.47248843    10.51142092     8.06990918    -0.11193559    -0.04879698     0.08572704
Ti      8.47403050     4.99027197     8.07723543     0.04896616    -0.00888162     0.08467700
Ti      3.30481422    10.52596360     8.06475521     0.05666533    -0.06639876     0.08630040
Ti      3.30814408     4.97944654     8.05281872    -0.11252103    -0.03654799     0.11412848
Ti      5.89785165     6.04828996     5.85596092    -0.00490824     0.17663177     0.21342272
Ti      5.87967449     0.52339659     5.83684908    -0.01085289     0.02495359    -0.02476925
Ti      0.71086649     6.01666521     5.81740557     0.05261148    -0.01761463     0.00096391
Ti      0.72744898     0.51884467     5.82814212    -0.01246754    -0.06063461     0.06038932
Ti      9.63775634    10.51389689     3.43752286     0.03191434     0.02639495     0.00857977
Ti      9.64168581     4.99417570     3.42597373     0.02898174     0.06973323    -0.04697921
Ti      4.46956015    10.51192983     3.43843085    -0.02777152     0.00578396    -0.00195712
Ti      4.55831840     4.98471582     3.51599595     0.05241247     0.02836905     0.02534517
O       6.81314732     7.44232092     4.72645531     0.01757555     0.01523533    -0.04779785
O       6.81590609     1.93975718     4.72711027    -0.00296294    -0.03000299     0.00337869
O       1.64137064     7.44920872     4.73305332    -0.02834102     0.03250338     0.07435633
O       1.65007615     1.90260700     4.77578796    -0.10133853     0.11539424    -0.27560899
O       8.71205655     9.07559613     4.53697761     0.01069965     0.00405823     0.00067080
O       8.72023693     3.56912862     4.54001393     0.05543712    -0.00636220    -0.01331909
O       3.53669456     9.07702547     4.53752069    -0.01095162     0.02215675     0.01014146
O       3.56178797     3.62046431     4.48527554    -0.08653951    -0.23322563     0.10987639
O       6.12224578     7.44875955     0.09698497     0.02033101    -0.01845487     0.02192689
O       6.12596994     1.93714107     0.09998328    -0.01863588    -0.02446766     0.01180291
O       0.94380098     7.45248771     0.09407609    -0.14470791     0.19456702    -0.39399779
O       0.94791887     1.93590777     0.09176217    -0.04522778    -0.07925866     0.00231631
O       9.40129213     9.07127463     9.17015447    -0.02500476     0.02544853     0.00952543
O       9.40383084     3.57012774     9.16518539    -0.02161733    -0.00244949    -0.00870190
O       4.22391864     9.06243340     9.17397711    -0.02617487    -0.04149325    -0.00546668
O       4.22618717     3.57528900     9.16487778     0.07109411    -0.02977724     0.00517486
O       8.71874263     6.32405576     0.09634402     0.02831377    -0.02573907    -0.00167790
O       8.71269539     0.81434382     0.09445296    -0.01178980     0.00795294    -0.00779225
O       3.53113296     6.29011544     0.12859883     0.10360393     0.06207057    -0.14177171
O       3.53248373     0.81768900     0.10506082     0.00899681     0.04759756     0.05929943
O       6.81529163    10.19914243     9.16710831     0.00322159    -0.01380040    -0.00461899
O       6.81949007     4.69649571     9.16866316     0.00252482    -0.04511208    -0.03171483
O       1.63499694    10.19361808     9.17334573     0.03210178     0.02109977     0.05063970
O       1.65878159     4.65846352     9.23276900    -0.00302748    -0.08058149    -0.19055507
O       9.40553642     6.32123644     4.73352791     0.04383553    -0.04377845     0.03081340
O       9.40013694     0.81418901     4.72582088     0.01744597     0.00091403     0.01681065
O       4.20145121     6.32514455     4.71269286     0.07694749     0.06449229     0.09710058
O       4.22487561     0.82140617     4.72347833    -0.02332840     0.07660116     0.00592382
O       6.12185578    10.20050538     4.53460711    -0.02436841     0.02718171     0.02904782
O       6.12070923     4.67608368     4.55560513     0.07895732     0.06041992     0.06176743
O       0.94791398    10.19788683     4.53562747    -0.00870936    -0.01274111     0.02466923
O       0.99835375     4.71249026     4.49723921     0.04660923     0.00217747    -0.06019829
O       5.36514174     8.85532601     2.50211666     0.00417187    -0.02669166     0.00304933
O       5.38595693     3.34721691     2.49143834     0.11534050    -0.04310482    -0.02585657
O       0.18838601     8.85491250     2.49694568     0.04026298    -0.01142599     0.00472286
O       0.18807991     3.36972290     2.47926503    -0.08901780    -0.05535279     0.03261960
O      10.16673679     7.66604356     6.76765104    -0.00642699    -0.01818645    -0.02318442
O      10.16489839     2.15153608     6.76124006     0.00987767    -0.06892462    -0.00064895
O       4.98968735     7.65568888     6.75524410     0.04451070    -0.02494665     0.00869213
O       4.99781847     2.15434285     6.76379700    -0.02757252    -0.01572102    -0.04645548
O       7.95288429     7.66653226     2.12972077    -0.05610483     0.00038592     0.04612407
O       7.95512942     2.15452578     2.12966371     0.02135328    -0.05522912    -0.00837717
O       2.77375228     7.58318858     2.16845909     0.03626208    -0.02159316     0.02955253
O       2.76251319     2.18655267     2.12498981    -0.00872864     0.01301827     0.02667161
O       7.57536152     8.85684395     7.13333185    -0.01503685    -0.01649929    -0.00601458
O       7.58035643     3.35378847     7.13227967    -0.03615718    -0.01335431     0.01405674
O       2.39677462     8.85494947     7.13633078    -0.03040022     0.00180389     0.01946866
O       2.39794583     3.36592371     7.13636323     0.02007724    -0.01335329    -0.12608849
O       5.33713008     6.08715377     2.10901920     0.11339315    -0.04470019    -0.01304090
O       5.36300402     0.59658926     2.13256300    -0.00551065     0.00461128     0.01112748
O       0.21470945     6.09067533     2.15229435    -0.03962200     0.17123733    -0.11351502
O       0.18759869     0.60014363     2.13139872     0.00410991     0.03821406     0.03772453
O      10.16805943    10.40771379     7.14186873     0.00127758    -0.04772638     0.00610997
O      10.17246830     4.91033285     7.13719531     0.01852403    -0.00247932    -0.03161635
O       4.99408755    10.41212818     7.13494937     0.01307355    -0.01367879     0.00843965
O       4.98782344     4.91842540     7.13101765     0.00860780    -0.03644849     0.01782829
O       7.57218724     6.10435959     6.75726104     0.00226000    -0.00652726     0.02619209
O       7.57623626     0.59572166     6.76168592    -0.03286488    -0.02456176     0.01862174
O       2.40193120     6.10610123     6.77175637    -0.02398043     0.01448174     0.02926354
O       2.40373523     0.56590100     6.78715743    -0.05790204    -0.01193969    -0.01649466
O       7.95100875    10.41739194     2.50311845    -0.02008058    -0.00429889    -0.01750768
O       7.94930594     4.91290083     2.50617934    -0.01152677     0.00704123     0.02151808
O       2.77501760    10.41182555     2.49997422     0.02240023    -0.03943508    -0.00989952
