# total energy = -4987.47202648 eV

CRYSTAL
PRIMVEC
        3.68478156     0.00000000     0.00000000
        0.00000000     3.84900018     0.00000000
        0.00000000    -0.00006727     5.01171853
PRIMCOORD
6 1
Ti      1.84239061     1.92446640     2.50585921     0.00000000     0.00000000     0.00000000
Ti      0.00000000     0.00000000     0.00000000     0.00000000     0.00000000     0.00000000
O       1.84239061     0.75010032     0.97671010     0.00000000     0.09295698     0.45666769
O       1.84239061     3.09883247     4.03500827     0.00000000    -0.09295698    -0.45666769
O       0.00000000     1.17433916     3.48257041     0.00000000    -0.09280632     0.45623317
O       0.00000000     2.67459364     1.52914801     0.00000000     0.09280632    -0.45623317
