# total energy = -19075.83906119 eV

CRYSTAL
PRIMVEC
        7.60600008     0.00000000     0.00000000
        0.00000000     7.60600008     0.00000000
       -1.89786986    -1.89786986     4.85670466
PRIMCOORD
22 1
Ti      3.85173499     6.54638900     1.24706498     0.00750145    -0.00686536     0.71279002
Ti      3.83591799     2.82631701     1.17835899    -0.38239054    -0.71821197    -0.21263571
Ti      0.11370400     6.70606898     1.07796602    -0.30627661    -0.62853957     0.86273476
Ti      0.01390498     2.90846898     1.04750901     0.07798904     0.40702892     1.02872421
Ti      5.66430021     2.97477621     3.52359080     0.16234440     0.22667882     0.29232554
Ti      6.06790725    -0.77053076     3.66726280    -0.32075604    -1.74846547    -0.75469671
Ti      1.87354121     2.82387825     3.62148881    -0.26782112    -1.93308900    -0.50885879
Ti      1.36511421    -1.16393378     3.89152579     1.08058158     2.23824898    -1.19075211
O       3.61763602     4.62647398     0.89566001     0.24425978     2.29203005    -0.65726291
O       3.99683698     0.93155299     0.76001299    -0.45830574    -1.33225128     1.77931795
O       0.10465999     4.81343902     0.69607700     0.18384783    -0.07703876    -0.23084195
O       0.09769602     1.00318899     0.70852701    -0.30179466     0.55691812     1.15356828
O       5.52704021     4.89302321     4.05999979     0.16797512    -0.45457146    -1.24475146
O       5.52110824     0.99031421     3.88072782     0.92319119     0.08426717     0.76651427
O       2.07206623     4.69432022     4.26562082    -0.52802354    -0.75788076    -1.49026182
O       1.90656425     0.82857923     4.08790283    -0.68478556     0.74365124    -0.30673118
O       3.78567425     2.68409623     3.21081784    -0.33986268     0.80227216    -0.12299725
O      -0.02333677     2.84645120     3.20250584     0.37612836     0.32322070    -0.21212072
O       5.73005102     6.48089098     1.81192100    -0.05219856     0.56453836    -0.33586307
O       5.72158598     3.11294799     1.55357402     0.12730051    -0.56744268     0.36262904
O       1.87239099     6.60851901     2.05363102     0.32575041    -0.12923141    -0.57796312
O       1.86764098     2.79275098     1.56774798    -0.03465437     0.11473321     0.88713274
