# total energy = -4985.46901561 eV

CRYSTAL
PRIMVEC
        3.44891985     0.00000000     0.00000000
        0.00000000     3.24236397     0.00000000
        0.00000000    -0.00006386     4.61136204
PRIMCOORD
6 1
Ti      1.72445978     1.62115016     2.30568112     0.00000000     0.00000000     0.00000000
Ti      0.00000000     0.00000000     0.00000000     0.00000000     0.00000000     0.00000000
O       1.72445978     0.63187658     0.89868659     0.00000000    -2.12820829    -1.97717264
O       1.72445978     2.61042373     3.71267569     0.00000000     2.12820829     1.97717264
O       0.00000000     0.98924808     3.20436861     0.00000000     2.12753106    -1.97708805
O       0.00000000     2.25305223     1.40699363     0.00000000    -2.12753106     1.97708805
