# total energy = -4986.70767659 eV

CRYSTAL
PRIMVEC
        4.61416946     0.00000000     0.00000000
       -0.00000791     3.41047327     0.00000000
       -2.30711297    -1.70528125     5.23848058
PRIMCOORD
6 1
Ti     -0.00019926     2.55798054     1.30961984    -0.00249551    -0.00413074     5.93402011
Ti      2.30724762    -0.85278851     3.92885996     0.00249551     0.00413074    -5.93402011
O       0.00004813     0.85261024     0.85330554     0.00116137     0.00283901    -1.67394253
O       2.30700006     0.85258172     4.38517427    -0.00116137    -0.00283901     1.67394253
O      -0.00002065    -0.85260696     3.47254566    -0.00258087    -0.00018769    -1.79529376
O       2.30706878     2.55779882     1.76593420     0.00258087     0.00018769     1.79529376
