# total energy = -4987.12076178 eV

CRYSTAL
PRIMVEC
        3.25899216     0.00000000     0.00000000
        1.25694839     4.94923355     0.00000000
       -0.00000808    -0.00006692     5.14734736
PRIMCOORD
6 1
Ti      2.25796611     2.47458322     2.57367374     0.00000000     0.00000000     0.00000000
Ti      0.00000000     0.00000000     0.00000000     0.00000000     0.00000000     0.00000000
O       1.87445514     0.96451962     1.00314222     0.63184447    -0.31486384    -0.58161692
O       2.64147702     3.98464682     4.14420526    -0.63184447     0.31486384     0.58161692
O       0.38350753     1.51003651     3.57681699    -0.63113407     0.31460261    -0.58031902
O       0.87343265     3.43913002     1.57053049     0.63113407    -0.31460261     0.58031902
