# total energy = -4977.16010126 eV

CRYSTAL
PRIMVEC
        2.84405210     0.00000000     0.00000000
        2.09703709     3.93194389     0.00000000
       -0.00001349    -0.00006075     4.61136204
PRIMCOORD
6 1
Ti      2.47053762     1.96594148     2.30568112     0.00000000     0.00000000     0.00000000
Ti      0.00000000     0.00000000     0.00000000     0.00000000     0.00000000     0.00000000
O       1.83070495     0.76626608     0.89868659   -10.37638357     4.21613972     6.14581532
O       3.11037032     3.16561697     3.71267569    10.37638357    -4.21613972    -6.14581532
O       0.63982696     1.19965098     3.20436861    10.37532864    -4.21649993     6.14595185
O       1.45719634     2.73223214     1.40699363   -10.37532864     4.21649993    -6.14595185
