# total energy = -19960.89063296 eV

CRYSTAL
PRIMVEC
        5.93400000     0.00000000     0.00000000
        0.00000000     9.29699974     0.00000000
        0.00000000     0.00000000     4.64899994
PRIMCOORD
24 1
Ti      4.46022400     7.03294197     2.44339202    -1.25446947    -0.40858341    -0.96075373
Ti      4.45416498     2.34059702     2.35258902     0.05147813    -1.03241966     0.72188556
Ti      1.46214997     6.97623502     2.29133199     1.13555204     0.81100363     0.17544572
Ti      1.47988900     2.38460101     2.26104299     0.38953821    -1.41497681     0.59350750
Ti      2.93624999     4.61934797     0.03941698     1.43534150    -0.05977149    -0.49324293
Ti      2.95916902     9.22926601     4.61820998    -0.58722681     1.08385254     0.44729730
Ti      0.03502301     4.72279699     0.01198899    -1.27122098    -0.63906927    -0.16789310
Ti      0.00240500     9.26755902     4.63583301     0.60672555     1.15089382     0.42622093
O       4.32722700     5.54979599     0.88611201     1.22132691     0.19073453     0.26062331
O       4.40953300     0.85995600     0.79178098     0.77509893     0.48314080     0.27962531
O       1.51427102     5.49240900     0.96015899    -0.72876532     0.15892766    -0.12030505
O       1.48552199     0.88750301     0.87109402    -0.00384611    -0.22140395    -0.87709309
O       4.47685700     8.38268301     3.71720702     0.01008876    -0.40020650     0.00362474
O       4.44867201     3.74630097     3.76870697     0.25006096    -0.22481452    -0.43104998
O       1.51999598     8.27858998     3.77291801    -0.68561962     0.64463956     0.11299668
O       1.42586201     3.70079898     3.73925900     0.04229903     0.63065867     0.33943614
O       2.86638002     6.16248498     3.23272900     1.20247377    -1.24157821     0.50632856
O       2.94644099     1.33105298     3.12435498     0.61852975     0.35643268     0.30741612
O       0.03237898     6.12549401     3.29424798    -0.48720700    -0.64426624     0.01202171
O       0.04229402     1.35465201     3.05660701    -0.27813073    -0.38302329     1.17874094
O       2.99331900     7.93603598     1.50736600    -0.03599109    -0.19044682    -0.70272518
O       3.07132200     3.23279499     1.43330600    -0.83826067     0.31834897    -0.55210681
O       0.00432301     7.91136002     1.41702999    -0.47261085    -0.46728866     0.02071204
O       0.06458201     3.16188799     1.41972800    -1.09516540     1.49921544    -1.08071296
