# total energy = -19073.12473626 eV

CRYSTAL
PRIMVEC
        5.17600016     0.00000000     0.00000000
        0.00000000     5.50899976     0.00000000
        0.00000000     0.00000000     9.26300011
PRIMCOORD
22 1
Ti      1.82317999     3.45719700     3.29844599     0.71261981    -0.80513354     0.16055080
Ti      3.51894600     2.20412898     6.03143900     1.33141721     1.52819564    -2.72721282
Ti      4.31302801     2.27187901     1.21135700    -0.11973143    -0.54470255    -0.16750949
Ti      0.94158302     3.01785902     8.03471600    -0.22881078     1.08197280    -0.05145911
Ti      1.73295701     0.45253101     1.29005301    -0.06900663     0.64797660    -0.87099417
Ti      3.32274502     5.09114802     8.02000101     0.46419125    -0.74793779     2.07234026
Ti      1.45098799     0.24094001     5.97002200    -1.03076747    -0.03477624    -2.15473309
Ti      4.31545598     4.98034899     3.41289100     0.58612586    -0.22173433     1.49683022
O       3.32230199     3.48804999     4.57124899    -0.21545467    -0.33757954    -0.53215659
O       0.86682599     1.93974901     0.50921102    -0.19457242     0.97214372    -2.64292482
O       4.33547798     3.50841299     8.74721300    -0.63015962    -0.07437973     0.09018379
O       3.28704900     0.82254200     0.25337102     1.37293540     0.12805178    -0.69782131
O       1.64848498     4.66546000     8.83082798    -0.89108607    -0.25135474     2.15695092
O       2.90291198     0.82863400     4.81098502     0.45420868     0.10599351     0.61246888
O       0.84251998     4.73995800     4.29883801    -0.12576273     0.77915253     2.30324623
O       0.00291899     3.52987499     2.49646702    -0.23252629    -1.28189903    -1.08646992
O       0.15735001     1.81353102     6.31738500     0.13628472    -0.01737758     0.65158309
O       2.69042699     1.92871000     2.29000000    -0.62605768     1.04621929     0.47733088
O       2.24456098     4.23382197     6.68187102     0.02611573    -2.49165854    -0.31765786
O       5.07966699     0.63101498     2.19013599     0.47085761     0.33901936     0.42051822
O       2.52219001     1.25284301     7.21261099    -0.52005929     0.90687033     1.40373029
O       2.73593603     4.78639299     2.39289698    -0.67076095    -0.72706222    -0.59679440
