# total energy = -19959.33962488 eV

CRYSTAL
PRIMVEC
        5.93400000     0.00000000     0.00000000
        0.00000000     9.29699974     0.00000000
        0.00000000     0.00000000     4.64899994
PRIMCOORD
24 1
Ti      4.51747701     6.89118100     2.40055100    -1.14714541     0.84714024    -0.33179610
Ti      4.42860000     2.52724402     2.38010602     0.14855531    -3.50963759     0.44747162
Ti      1.51189798     6.85653598     2.10682699     0.83844245     1.34550995     1.48971906
Ti      1.47176100     2.54915201     2.36316701     0.44051807    -2.84061033     0.67739903
Ti      2.99346998     4.65740598     0.01888099    -0.05750891     0.25775010    -0.39871988
Ti      2.95139102     9.06561699     4.62930799    -0.36415010     1.40885964    -0.40907681
Ti      5.87537002     4.63990000     4.62883702     0.29505939    -0.39872348     0.58546149
Ti      5.93377097     0.04047798     0.09885999     0.45610719     0.96103321     0.02378091
O       4.40684298     5.63159399     0.74271101    -0.13000377    -0.09600323     0.26861070
O       4.43117101     0.74480100     0.92361401     0.60213741     0.49999156    -0.32305820
O       1.47964098     5.54552601     0.80753401    -0.11665922     0.16124679    -0.31068425
O       1.50665500     0.90262002     0.92899601    -0.61585220    -0.48914664    -0.72250134
O       4.46539698     8.25287800     3.71127500    -0.22370688     0.72907000     0.35061273
O       4.44059698     3.61833501     3.86785003    -0.36188470     1.28950384     0.88666094
O       1.48027800     8.26974801     3.75252002     0.02386087     0.26811859     0.00305062
O       1.42120600     3.77645000     3.75723902     0.92069696     0.26719197     0.36798696
O       2.98044602     5.89632602     2.90772702    -0.45802960    -0.56756249     2.13213848
O       3.02625801     1.51392700     3.17635803    -0.24714790     0.02569690    -0.19110220
O       5.72729501     5.92492398     3.31786902     1.86998433     0.58699747    -1.70307314
O       5.89575901     1.68846300     3.27811400     1.12025860    -1.75044059     0.06632035
O       2.94366900     7.83975202     1.42707399    -0.31565779     0.06575367    -0.31821424
O       3.10119300     3.51747103     1.58656500    -1.59338675     0.12576839    -1.48113800
O       0.00287502     7.74177300     1.41342698    -0.01788177     0.57559051    -0.38453896
O       0.10852801     3.39531400     1.47531601    -1.06660532     0.23690128    -0.72530976
