# total energy = -19073.71472995 eV

CRYSTAL
PRIMVEC
        5.93400000     0.00000000     0.00000000
        0.00000000     9.29699974     0.00000000
        0.00000000     0.00000000     4.64899994
PRIMCOORD
22 1
Ti      4.51390501     6.96096699     2.43600497    -1.58213072    -0.77312329    -0.53985602
Ti      4.42865001     2.46209198     2.10864100     0.32291576    -1.19175304    -0.40234257
Ti      1.52482901     7.14866002     2.52770599     0.82439882     0.09560008     0.31058681
Ti      1.58077902     2.23758002     2.28208599    -0.14859413     0.67311557    -0.10775292
Ti      2.98342699     4.51269198     4.44345099    -0.48254842     1.41084170     1.01366011
Ti      2.96499701     9.21378599     0.02584100     2.07370783     0.27748950     0.82420368
Ti      5.80459500     4.57193999     4.48120101    -0.15559165     0.25072456     0.21387755
Ti      0.01778401     9.21045799     0.21907002    -2.14334207     0.19330049     1.46631456
O       4.28920201     5.62157301     0.79959101     0.62860642    -0.97320919     0.80766736
O       4.37110902     0.72752802     1.10921801     1.00848294     1.71412555    -0.81911675
O       1.56955401     0.71151099     1.11847099    -1.00627564     1.21040331     0.00153058
O       4.46544201     8.23333299     3.97007897    -0.17983716     1.35648856    -0.69437886
O       4.34030403     3.87262601     3.49410002     1.48060270    -0.83420296    -1.09438070
O       1.41381302     8.52294699     3.83723098     0.24308710    -0.25206256    -1.60491610
O       1.43096000     3.94036101     3.43798299    -0.15412175    -0.25581226     0.85980216
O       2.92023603     6.15550598     3.39389501    -0.97807295     0.04905538    -0.89752205
O       3.08774301     1.58802198     3.16037100    -0.57655827    -0.98569113     1.82201473
O       0.05871603     6.36222098     3.42885098     0.52716093    -2.60759811     0.57848017
O       3.03623999     7.93620298     1.64564102    -0.87482897    -0.08430856    -0.97432556
O       2.92931200     3.10882501     1.15914599    -0.49525507     0.86437718    -0.52092703
O       5.86136799     7.84427600     1.48705702     1.45699534     0.08257461    -0.26175768
O       0.02002698     3.27947001     1.20418702     0.21119846    -0.22033565     0.01913801
