# total energy = -19518.86801443 eV

CRYSTAL
PRIMVEC
        7.60600008     0.00000000     0.00000000
        0.00000000     7.60600008     0.00000000
       -1.89786986    -1.89786986     4.85670466
PRIMCOORD
23 1
Ti      3.80818799     6.60020802     1.20306903     0.33784102     1.01505494     0.29955857
Ti      3.75196502     2.83780598     1.26830198     0.70940722    -0.81669425     1.23890966
Ti      0.00977703     6.70229001     1.14773301    -0.26832634    -0.14593613     0.46240279
Ti     -0.01611101     2.88552401     1.20806901    -0.31741592    -0.03800580    -1.11519224
Ti      5.64861625     2.89686422     3.67020079    -1.38927194    -1.51182696    -0.91214212
Ti      5.73423321    -0.97134178     3.61315680     0.08045139     1.33911741    -0.10145603
Ti      1.85259023     2.78056525     3.71400984     1.68644272     0.20759583    -0.63146831
Ti      1.89552624    -0.97883175     3.61236484     0.06064720     0.19812825     0.44510903
O       3.98267001     4.71884102     0.86725002    -0.96078201     0.29602999    -0.01198237
O       3.84956002     0.94875099     0.80868402    -0.30180391    -0.55420895    -0.63175448
O      -0.18369002     4.77975202     0.70994700     0.86892495     0.77325391     1.32718080
O      -0.05536797     0.96334999     0.74999598     0.41120979    -0.71270620    -0.46711794
O       5.76904820     4.74185325     3.89752480     0.41079687     1.26539383     0.68842187
O       5.72724521     1.03472224     4.12948383     0.75282108    -1.23429118    -0.94359187
O       1.86368623     4.70463923     3.91243183    -0.38280038     0.69819489     1.23833604
O       2.03313122     0.96415624     4.06429480    -1.19303139    -0.69314679     0.52427153
O       3.75727421     2.81428220     3.33866780     0.54715821     0.44230164    -1.59151576
O       3.82093825    -0.78645376     3.12914483     0.10581765    -0.74522476     0.15235952
O       0.03113520    -0.79720579     3.14296483     0.03814721    -0.22256866     0.82833878
O       5.80053600     6.67243902     1.65175402    -1.44197520    -0.02301498    -0.49859417
O       5.80404100     2.73388202     1.66171298    -0.66845802     0.31953399     0.78798530
O       1.86972801     6.58151499     1.64183502     0.99484169    -0.13648475    -0.80181065
O       1.83031198     2.76927398     1.71843798    -0.08064191     0.27950447    -0.28624771
