# total energy = -19957.87100311 eV

CRYSTAL
PRIMVEC
        7.60600008     0.00000000     0.00000000
        0.00000000     7.60600008     0.00000000
       -1.89786986    -1.89786986     4.85670466
PRIMCOORD
24 1
Ti      3.73534002     6.60779002     1.32963600     0.01591796     2.68788366     1.11735274
Ti      3.71168199     3.09976602     1.14682902     0.77692236    -3.24662958     0.66279979
Ti     -0.03041399     6.57297502     1.16540002    -0.25824530     1.77799331     1.94661455
Ti      0.09338899     3.03091202     1.10157198    -0.24814831    -1.44405985    -0.67794308
Ti      5.62825922     2.81057325     3.57793979    -1.01496623     0.28400519    -3.42025753
Ti      5.96569121    -1.08307777     3.78731279    -1.35463814     0.47814977    -0.75110744
Ti      1.74282924     2.89328524     3.54093184     1.07673881    -0.50217649     0.12054159
Ti      1.92910524    -1.04632175     3.80067082     2.06765339     0.85100538     0.03008526
O       3.51485202     4.82126698     0.59398897    -0.32862490    -0.18331098     1.85411368
O       3.67854702     0.94887000     0.80311199     1.14862688    -0.22093112     1.30686420
O       0.45200299     4.91247899     0.41975101     0.65895316    -3.14071166     2.61333347
O       0.12816202     0.72477100     0.94313901    -0.57872957     2.49409312    -1.04483706
O       5.45866320     4.83645522     4.11345479     0.09536714    -2.38156181    -1.17183932
O       5.68429020     0.90013421     4.03191482     0.05783005     1.26445075    -0.16907272
O       2.00004621     4.77890724     4.17842579     0.34430915    -1.95616080    -1.09239426
O       1.65953923     0.94173320     4.20024980     0.36261670     1.33709550    -1.81449631
O       3.62321821     3.05501123     3.13557280     1.39777535    -0.69471053     0.09455415
O       4.02308121    -0.97117075     3.19467783    -1.45474742     0.25566005     0.49953185
O      -0.02672075     3.10414825     2.96492584    -0.52226375     0.50742771     1.88504586
O       0.18848320    -1.31355780     3.40036982    -3.30380014     0.27509220    -0.88396256
O       5.78347702     6.45575999     1.67126500     1.13736262    -0.27418743    -0.04576720
O       5.75181999     2.90169403     1.54126102    -1.39623218     0.41504331    -0.02816002
O       1.93066197     6.80804498     1.87619101     0.51540302    -0.88115080    -1.51386405
O       1.77416600     2.39057701     1.53014602     0.80491937     2.29769059     0.48286467
