# total energy = -19514.73011634 eV

CRYSTAL
PRIMVEC
        5.93400000     0.00000000     0.00000000
        0.00000000     9.29699974     0.00000000
        0.00000000     0.00000000     4.64899994
PRIMCOORD
23 1
Ti      4.68596700     7.32376498     2.10785502    -3.40994406    -1.91510258     1.57991468
Ti      4.28560202     2.22134899     2.57797000     0.02225342     0.63022981    -2.24883370
Ti      1.51637799     6.90266801     2.41353002    -0.09037560    -0.21228347     0.21488311
Ti      1.25374902     2.48498398     2.14326301     0.50829417    -0.61180631    -1.13836740
Ti      2.95272201     4.56882398     4.60221300     2.18832893    -1.02002334     2.21446266
Ti      3.07897999     9.02664298     4.44025899     0.28349097     0.70472498     1.04691426
Ti      0.10796301     4.54307702     4.64319799    -2.03600156     0.73224068    -0.64213171
Ti      5.89859598     0.17852303     0.08921600     1.31608006     1.18067184     0.59271843
O       4.16456902     5.61634998     0.90583202     0.44629379     0.77839509    -0.28519021
O       4.29956299     0.59807301     1.09135299     2.04026856     0.89304987    -0.72806444
O       1.38771299     5.43914201     0.91159402     1.42508973     0.79324990     0.89454703
O       1.37716199     1.05831402     0.92353601    -0.00503859    -0.45318667     0.03814233
O       4.86676300     8.19458499     3.89642502    -3.38919036     0.55386211    -1.59648159
O       4.48174300     3.67407802     3.71517599    -1.31119342     1.26706299     0.54813009
O       1.51449402     8.34927001     3.93638298    -0.49558726    -0.76000064    -1.03447397
O       1.47344902     3.80623702     3.45792700     0.44799072     1.13178023     1.59850402
O       2.96331698     1.21580701     3.24766900    -0.62676525     0.10337278     0.80181759
O       0.11466599     6.23132999     3.41858198    -0.37229150    -1.37987121    -1.19281387
O       0.00497998     1.57263499     3.33443698    -0.22480860    -1.05509063    -0.12606715
O       2.90822598     8.03895402     1.65193902     0.91504798    -1.53512091     0.21756529
O       3.02987298     3.08408899     1.24894203    -1.13754465     0.42723780     0.65473141
O       0.23165501     7.80245899     1.40008399     1.62021314     1.23187075    -0.87182952
O       5.60841200     3.44495797     1.47659000     1.88538936    -1.48526308    -0.53807784
