# total energy = -4985.59564833 eV

CRYSTAL
PRIMVEC
        2.81921367     0.00000000     0.00000000
        0.00000000     3.99659161     0.00000000
        0.00000000    -0.00005467     4.21748194
PRIMCOORD
6 1
Ti      1.40960684     1.99826833     2.10874097     0.00000000     0.00000000     0.00000000
Ti      0.00000000     0.00000000     0.00000000     0.00000000     0.00000000     0.00000000
O       1.40960684     0.77886613     0.82192510     0.00000000     0.65985279     0.51425605
O       1.40960684     3.21767048     3.39555679     0.00000000    -0.65985279    -0.51425605
O       0.00000000     1.21938005     2.93066693    -0.00000000    -0.66071822     0.51530120
O       0.00000000     2.77715660     1.28681496    -0.00000000     0.66071822    -0.51530120
