# total energy = -19518.08466650 eV

CRYSTAL
PRIMVEC
        7.60600008     0.00000000     0.00000000
        0.00000000     7.60600008     0.00000000
       -1.89786986    -1.89786986     4.85670466
PRIMCOORD
23 1
Ti      3.79889098     6.61329198     1.22954498     1.02338274     0.55319490     0.53934899
Ti      3.82501397     2.78727098     1.15863200    -0.19253276    -0.18260727     1.67267703
Ti     -0.00079398     6.55828400     1.21770501    -1.90438622     0.19871241    -1.01577279
Ti     -0.06736802     2.78752700     1.10513398     1.25196701     0.46529245    -0.01625581
Ti      5.71111023     2.92660023     3.67342983    -1.00971964    -1.68135580    -0.71070023
Ti      5.79740221    -0.93741575     3.69682883    -2.22244980     0.38138859    -0.25169901
Ti      1.89858420     2.98840924     3.70918882     1.74253933    -0.60973400    -1.64188292
Ti      1.83804923    -0.87055875     3.53535679     1.15785534    -0.02394649     1.64170217
O       3.65765500     4.74337802     0.72511402    -0.36024305     0.71203823     1.40984386
O       3.65382302     0.95592499     0.86180902     0.13542057    -0.43607108    -0.59737676
O      -0.12580300     4.69674999     0.74833998     0.62562059     1.10816001     0.67479425
O       0.17691999     0.94142099     0.83681799    -1.00841326    -1.36282505    -0.95457280
O       5.56459221     4.71794523     3.98137379     1.31757310     1.89761470     1.16734349
O      -1.47501279     1.01780725     4.01165680    -1.00571257    -0.56663304     0.35510907
O       2.07381024     4.82192523     3.99183081    -0.89105701     0.30071788     0.54726337
O       1.85725922     1.00772822     4.12187082    -0.12854929    -1.20846084    -0.80059966
O       3.92988420     2.85312921     3.35958882    -2.10466752    -0.42319500    -1.21405042
O       3.81927420    -0.86295776     3.14031079    -0.65297843     0.37193206     0.61461498
O      -0.10465676    -0.89477777     3.21483980     2.77890795    -0.72978373    -0.31389813
O       5.69484702     6.54325198     1.64137601    -0.15708983     0.32210252    -0.43274588
O       5.71959601     2.81943601     1.60424502    -0.13855731    -0.22616512    -0.09309968
O       1.79616200     6.47115301     1.69586100     1.04466454     0.26203588    -0.78282921
O       1.70852897     2.71152301     1.82144900     0.69842603     0.87758751     0.20278632
