# total energy = -19075.93062305 eV

CRYSTAL
PRIMVEC
        7.60600008     0.00000000     0.00000000
        0.00000000     7.60600008     0.00000000
       -1.89786986    -1.89786986     4.85670466
PRIMCOORD
22 1
Ti      3.77066599     6.54956602     1.27587403     1.13679517    -0.30139614    -1.84234137
Ti      3.77607101     2.79738800     1.17012102     1.10764914     0.07911956     0.69984271
Ti      0.28341400     6.80065099     0.99155497     0.01620901    -1.11897896     0.80949465
Ti      0.07240399     2.91144602     1.10118600    -1.19587555     1.28772978     1.05816001
Ti      5.64999221     2.91316622     3.51534183     1.06291424     0.12362897     0.07885988
Ti      5.98056622    -0.84504675     3.62385380     0.65558064    -0.12404292    -0.54752125
Ti      1.93366722     2.72193722     3.64819379    -1.23078420     0.50671783     0.28923687
Ti      1.30517023    -1.12570580     3.94878181     1.25031893     0.26397397    -1.42095694
O       3.96582000     4.59282799     0.80003398    -0.62707378     2.00621171    -0.09457215
O       3.87925300     0.87284501     0.85913599    -0.69631284    -0.64216282     0.77277208
O       0.12722199     4.81728799     0.69460801    -0.04428341     0.42638985     0.31007798
O      -0.14474601     1.07902501     0.63885998     0.41226857    -0.76108950     1.49664408
O       5.68480022     4.85393823     4.01289883    -0.26231176     0.26060017    -1.02763098
O       5.58963722     1.04815625     3.90099880     0.47832358    -0.72438159     0.38299835
O       1.89086821     4.67394621     4.15172282    -0.69180158     0.53687431     0.53688742
O       1.85232522     0.84021425     4.12077982    -0.65068063    -0.40414234    -1.10915863
O       3.70961021     2.96197922     3.27692779     1.08276213    -0.38419957    -0.42990095
O      -0.03929078     3.00595020     3.18736481     0.89495583    -0.60152961    -0.49830672
O       5.60236499     6.59846602     1.82913101    -0.14706767     0.22649936    -0.25213687
O       5.71431101     2.82669400     1.56207600    -0.24419036     0.12895321     0.48032621
O       2.06762897     6.60710002     2.03615901    -1.32810306    -0.06434677     0.40661292
O       1.94021802     2.91117302     1.62378002    -0.97929242    -0.72042852    -0.09938757
