# total energy = -19958.60801249 eV

CRYSTAL
PRIMVEC
        7.60600008     0.00000000     0.00000000
        0.00000000     7.60600008     0.00000000
       -1.89786986    -1.89786986     4.85670466
PRIMCOORD
24 1
Ti      3.77625500     6.53869402     1.29027098     1.04285808     1.24597891     0.81759440
Ti      3.49491098     2.84849499     1.26868801     1.77312724    -1.03675120     0.66779750
Ti      0.20444599     6.53665298     1.17152398    -2.19526140     2.15810997    -1.92765883
Ti      0.06734299     3.06016801     1.15677099    -3.78310280    -1.48675150    -1.88098198
Ti      5.71096222     2.91135622     3.38204779    -0.15169566     0.70817335    -0.02521379
Ti      5.93589324    -0.90127278     3.57851882    -1.56783049    -0.47234731     1.58958049
Ti      1.75951224     2.80157925     3.74319682    -0.31483016     0.27401259     0.81807545
Ti      1.90519722    -1.01290579     3.71747780     1.88196594    -0.01865053     0.80713566
O       3.38375799     4.67377899     0.96435299     0.84360163     0.20066645    -0.91970502
O       3.82034901     0.85238400     0.93682201    -0.37472274     1.02002308    -1.25969832
O       0.48823100     4.82171297     0.84032998    -1.05135507    -1.77397776    -0.58861803
O       0.10940099     1.03185399     0.62061400     0.09623746     0.33296390     0.66028165
O       5.70710520     4.67714821     4.01517879    -0.40837952     1.34777329     0.58307191
O       5.78233923     1.12049023     3.91405080     0.14964803    -1.56058486     0.93059108
O       1.91792521     4.64449421     4.05765881     0.52248024     0.69819438     1.55553496
O       1.55761223     0.89597424     3.98501082     0.54178794    -0.34915234     1.37010333
O       3.78225322     2.92976222     3.13816180    -1.78500574    -0.79841113     0.03067919
O       3.81636722    -0.99511777     3.38912083    -1.16869075     0.15442386    -1.34320650
O      -0.04264777     3.09509323     3.37628881     0.14829152    -0.53250034    -0.99623368
O       0.16177023     6.29536223     3.05100779    -1.18078831     0.60737630     1.91305419
O       5.71599602     6.47514899     1.75847098    -0.40226184     0.12476308    -1.91682599
O       5.65132299     2.96526499     1.52271198     0.76602062     0.22073597    -0.50296196
O       1.90368801     6.81909700     1.56259099     2.32309953     0.37239743     0.94779639
O       1.63354302     2.90723700     1.89031200     4.29480625    -1.43646558    -1.33019234
