# total energy = -4989.98859013 eV

CRYSTAL
PRIMVEC
        3.04478184     0.00000000     0.00000000
        0.47588165     4.74692260     0.00000000
       -0.00000317    -0.00006191     4.77670607
PRIMCOORD
6 1
Ti      1.76033021     2.37343034     2.38835303     0.00000000     0.00000000     0.00000000
Ti      0.00000000     0.00000000     0.00000000     0.00000000     0.00000000     0.00000000
O       1.61513263     0.92509328     0.93090965    -0.18559875    -0.15272924    -0.18151866
O       1.90552785     3.82176741     3.84579636     0.18559875     0.15272924     0.18151866
O       0.14519629     1.44831197     3.31926365     0.18579107     0.15259606    -0.18129266
O       0.33068240     3.29854860     1.45744236    -0.18579107    -0.15259606     0.18129266
