# total energy = -19914.79362659 eV

CRYSTAL
PRIMVEC
        6.43947453     0.00000000     0.00000000
        2.63601026     6.32633944     0.00000000
        0.00000000     0.00000000    11.77231260
PRIMCOORD
24 1
Ti      3.89609709     3.74898301     4.36744401    -0.11027697    -2.26332238     0.57157007
Ti      5.17938781     2.57735661     7.40486872     0.11027697     2.26332238    -0.57157007
Ti      6.62754481     2.57735876     1.51866529    -0.36556524    -1.11949473     0.23366426
Ti      2.44794013     3.74898112    10.25364750     0.36556524     1.11949473    -0.23366426
Ti      2.57809209     0.58581327     1.51871249    -0.11027697    -2.26332238    -0.57157007
Ti      6.49739285     5.74052654    10.25360031     0.11027697     2.26332238     0.57157007
Ti      1.12993498     0.58581094     7.40482146     0.36556524     1.11949473     0.23366426
Ti      7.94554996     5.74052887     4.36749120    -0.36556524    -1.11949473    -0.23366426
O       2.96631836     2.22761173     6.00732103     1.83099637     2.10278470    -0.82266204
O       6.10916648     4.09872790     5.76499170    -1.83099637    -2.10278470     0.82266204
O       2.10983527     2.22763729     0.12120256    -0.20631465    -0.76417739     1.56646627
O       6.96564972     4.09870244    11.65110978     0.20631465     0.76417739    -1.56646627
O       4.79116145     0.93555803     0.12116434    -1.83099637    -2.10278470    -0.82266204
O       4.28432345     5.39078159    11.65114800     1.83099637     2.10278470     0.82266204
O       5.64764461     0.93553252     6.00735918     0.20631465     0.76417739     1.56646627
O       3.42784017     5.39080719     5.76495348    -0.20631465    -0.76417739    -1.56646627
O       1.83733190     3.84803846     3.17999535     0.62797752     2.67667314     2.54548075
O       7.23815293     2.47830118     8.59231738    -0.62797752    -2.67667314    -2.54548075
O       4.48632590     2.47824230     2.70619846     0.68768422     2.05771736     1.49953605
O       4.58915893     3.84809733     9.06611407    -0.68768422    -2.05771736    -1.49953605
O       0.51932686     0.68486852     2.70616082     0.62797752     2.67667314    -2.54548075
O       8.55615804     5.64147110     9.06615165    -0.62797752    -2.67667314     2.54548075
O       3.27115390     0.68492746     8.59235489    -0.68768422    -2.05771736     1.49953605
O       5.80433093     5.64141218     3.17995777     0.68768422     2.05771736    -1.49953605
