# total energy = -19916.55749147 eV

CRYSTAL
PRIMVEC
        6.42393866     0.00000000     0.00000000
        1.35389752     6.70162012     0.00000000
        0.00000000     0.00000000    11.55593092
PRIMCOORD
24 1
Ti      3.13068711     3.97137388     4.28716810    -0.21118664    -1.71281403     0.71396784
Ti      4.64714877     2.73024640     7.26876328     0.21118664     1.71281403    -0.71396784
Ti      6.09181147     2.73024881     1.49075142     0.16096294    -0.15378288    -0.34490359
Ti      1.68602443     3.97137174    10.06518009    -0.16096294     0.15378288     0.34490359
Ti      2.45373850     0.62056407     1.49079775    -0.21118664    -1.71281403    -0.71396784
Ti      5.32409739     6.08105641    10.06513375     0.21118664     1.71281403     0.71396784
Ti      1.00907571     0.62056148     7.26871694    -0.16096294     0.15378288    -0.34490359
Ti      6.76876018     6.08105900     4.28721443     0.16096294    -0.15378288     0.34490359
O       2.50994736     2.35975440     5.89690327     1.75521076     1.90478423    -0.50337076
O       5.26788851     4.34186588     5.65902810    -1.75521076    -1.90478423     0.50337076
O       1.65552549     2.35978139     0.11897480    -0.92058460     0.40915034     0.73626446
O       6.12231046     4.34183895    11.43695625     0.92058460    -0.40915034    -0.73626446
O       4.59093988     0.99105587     0.11893729    -1.75521076    -1.90478423    -0.50337076
O       3.18689599     5.71056441    11.43699376     1.75521076     1.90478423     0.50337076
O       5.44536183     0.99102894     5.89694078     0.92058460    -0.40915034     0.73626446
O       2.33247398     5.71059141     5.65899059    -0.92058460     0.40915034    -0.73626446
O       1.05691370     4.07630517     3.12154535     0.49265106     1.21465386     1.43227160
O       6.72092217     2.62531511     8.43438602    -0.49265106    -1.21465386    -1.43227160
O       3.97574615     2.62525252     2.65645710     0.60923752     1.43966018     0.63007015
O       3.80208972     4.07636777     8.89947408    -0.60923752    -1.43966018    -0.63007015
O       0.37996508     0.72549517     2.65642017     0.49265106     1.21465386    -1.43227160
O       7.39787080     5.97612518     8.89951100    -0.49265106    -1.21465386     1.43227160
O       3.12514109     0.72555769     8.43442288    -0.60923752    -1.43966018     0.63007015
O       4.65269478     5.97606259     3.12150843     0.60923752     1.43966018    -0.63007015
