# total energy = -19075.44917372 eV

CRYSTAL
PRIMVEC
        7.60600008     0.00000000     0.00000000
        0.00000000     7.60600008     0.00000000
       -1.89786986    -1.89786986     4.85670466
PRIMCOORD
22 1
Ti      3.69894400     6.69459001     1.20059602     0.09579857    -0.25674737     0.99382121
Ti      3.73045497     2.79462199     1.24632699    -0.09153491    -0.46986825    -0.96806775
Ti     -0.08796799     6.64978198     1.20602400    -0.83409806     0.52907203     1.66168094
Ti     -0.02480799     3.04172798     1.31459101     0.60911179    -1.05261671     0.23583427
Ti      5.63787321     3.06200420     3.53440983     1.38025842    -0.26294245     0.02830374
Ti      5.61215323    -0.96948278     3.75449682     1.08753256    -0.17513616    -1.29888092
Ti      1.99084620     2.97981223     3.73644881    -1.50708327    -0.66835723    -0.77915896
Ti      1.82202024    -0.92165278     3.64820284    -0.97778010     0.60954888    -0.23646830
O       3.65212801     4.74007601     0.73831000     0.60541146    -0.44086362     0.23277414
O       4.05096001     0.86503600     0.98241799    -1.20364491     2.72131804    -0.85421515
O       0.08762800     4.79526999     0.65394597    -0.28988967     0.06181217     0.03472148
O       0.00184598     0.96598698     0.78831900    -0.17134326     0.63838510     0.39320281
O       5.28135924     4.84717524     3.77244180    -0.37993257    -0.09230367     1.88929050
O      -0.13520976    -1.07142576     3.33906283     0.18956571     0.59552942    -1.11713137
O       1.91862324     4.89636623     4.15464780     0.69926421    -2.30337787    -1.08582972
O       1.81119725     0.86413020     3.96872582     0.41138617     1.37535970     1.23243510
O       3.82795223     2.67330022     3.20949283    -0.99032297     0.08877431     0.39310511
O       0.01346322     3.21055224     3.23534880    -0.51936843    -0.66901029     0.38714760
O       5.49937900     6.62833501     1.79416102     0.98559445    -0.12757099    -0.39500772
O       5.71536799     2.85594099     1.61461499    -0.50517722     0.33864706    -0.32199762
O       1.82265198     6.66317101     1.68639598     0.31460518     0.06723926    -0.20235206
O       1.86078698     2.93662602     1.66099902     1.09164710    -0.50689061    -0.22320758
