# total energy = -19074.98147472 eV

CRYSTAL
PRIMVEC
        7.60600008     0.00000000     0.00000000
        0.00000000     7.60600008     0.00000000
       -1.89786986    -1.89786986     4.85670466
PRIMCOORD
22 1
Ti      3.67680302     6.82969600     1.08714000     0.95035130    -1.54607844     1.05287459
Ti      3.84635299     2.96104300     1.15907598     0.85591079     2.46853017     0.41768178
Ti     -0.00403201     6.58406801     1.35067498    -0.01453085    -0.44937629     0.24461485
Ti      0.12608399     2.81668101     1.33644699    -1.73784038     0.56212512    -2.70442023
Ti      5.68394423     2.87622721     3.61928081    -0.69975555     0.24605826    -0.17796051
Ti      5.58918620    -1.03860979     3.78403179     1.27527433    -0.40971701    -1.17782665
Ti      1.91237324     2.86772725     3.50003379     0.93413123     0.83508073     2.11505272
Ti      1.75789523    -0.83783576     3.81818880    -0.96815825     0.40041501    -3.46179500
O       3.99898100     4.98663202     0.60314099    -0.21742953    -0.78073582     0.54967352
O       3.48394299     1.20865100     0.74049302     0.28633358    -2.03677340     2.10542265
O      -0.17036100     4.58662498     0.78257298     0.06389245     1.67596676    -0.46587969
O      -0.06107700     0.97096199     0.83440902     0.25460538    -0.13967729     0.58549389
O       5.53461723     4.71927225     4.08222380    -0.13349918    -0.08170146     0.64127373
O      -0.11695378    -1.07571278     3.38123583    -0.60945272     0.67026807    -1.24043458
O       1.80216223     4.95065722     4.01513683     0.66550562    -0.85584908    -0.21979289
O       1.55345824     1.10540524     4.05164583     1.38964912     0.00415773    -0.68632668
O       3.84800122     2.70414824     3.16467183    -1.23672499    -0.21440437     0.21408607
O      -0.01724779     2.72263124     3.09198183    -0.32103423     0.32065294     2.77531252
O       5.43531701    -0.53527300     1.96214199    -0.71057424    -0.40047132    -0.76189040
O       5.65258502     2.88560799     1.60685101     0.02896657    -0.21396806    -0.25847824
O       1.91727300     6.56277799     1.67556398    -0.54727828     0.66486593    -0.20855614
O       1.92186599     3.28716298     1.56559402     0.49165784    -0.71936819     0.66187470
