# total energy = -19937.63070342 eV

CRYSTAL
PRIMVEC
        5.28169929     0.00000000     0.00000000
        2.64535204     4.95998136     0.00000000
        0.00000000     0.00000000     9.78221281
PRIMCOORD
24 1
Ti      3.48199515     2.93928036     3.62913120     3.47995034    -4.56741836     1.08372861
Ti      4.44505632     2.02070112     6.15308172    -3.47995034     4.56741836    -1.08372861
Ti      5.63284444     2.02070289     1.26193618    -7.42431741     1.16683621     1.65164180
Ti      2.29420719     2.93927883     8.52027679     7.42431741    -1.16683621    -1.65164180
Ti      2.15931934     0.45928985     1.26197542     3.47995034    -4.56741836    -1.08372861
Ti      5.76773224     4.50069183     8.52023761    -3.47995034     4.56741836     1.08372861
Ti      0.97153112     0.45928794     6.15304248     7.42431741    -1.16683621     1.65164180
Ti      6.95552044     4.50069368     3.62917039    -7.42431741     1.16683621    -1.65164180
O       2.60316465     1.74649379     4.99178834     0.20912101     1.26958550    -1.40182176
O       5.32388689     3.21348773     4.79042458    -0.20912101    -1.26958550     1.40182176
O       1.90067349     1.74651376     0.10071337     1.80598338    -0.57681461    -0.53990178
O       6.02637811     3.21346781     9.68149923    -1.80598338     0.57681461     0.53990178
O       4.00121097     0.73349703     0.10068162    -0.20912101    -1.26958550    -1.40182176
O       3.92584055     4.22648445     9.68153098     0.20912101     1.26958550     1.40182176
O       4.70370219     0.73347710     4.99182004    -1.80598338     0.57681461    -0.53990178
O       3.22334929     4.22650444     4.79039283     1.80598338    -0.57681461     0.53990178
O       1.80094940     3.01694180     2.64241973     0.52981714    -0.71032459    -0.44472388
O       6.12610214     1.94303973     7.13979314    -0.52981714     0.71032459     0.44472388
O       3.86903093     1.94299340     2.24871780     2.01927395    -0.70447816    -1.79132757
O       4.05802060     3.01698812     7.53349491    -2.01927395     0.70447816     1.79132757
O       0.47827348     0.53695109     2.24868658     0.52981714    -0.71032459     0.44472388
O       7.44877804     4.42303038     7.53352613    -0.52981714     0.71032459    -0.44472388
O       2.73534469     0.53699742     7.13982431    -2.01927395     0.70447816    -1.79132757
O       5.19170683     4.42298406     2.64238850     2.01927395    -0.70447816     1.79132757
