# total energy = -19073.56713084 eV

CRYSTAL
PRIMVEC
        5.17600016     0.00000000     0.00000000
        0.00000000     5.50899976     0.00000000
        0.00000000     0.00000000     9.26300011
PRIMCOORD
22 1
Ti      1.69098299     3.30357001     3.49270299     0.94366797    -0.01907296    -2.21998360
Ti      3.50085100     2.28501203     5.98322000     0.02504101     0.87134179     0.45118275
Ti      4.45530498     2.24065898     1.19486800    -0.15713971    -0.96876015    -0.66917690
Ti      0.75634098     3.13614802     8.05504598     1.55566043     0.04273844     0.50132314
Ti      1.84234102     0.49536499     1.33777401     0.10281460     0.11660369    -1.60158780
Ti      3.30738898     5.12697998     7.99079598    -0.34128785     0.51989936     2.50510773
Ti      1.56274599     0.12766502     5.66562300    -0.46076988     0.48774796     1.83702484
Ti      4.24589600     4.96824702     3.45331802     0.36668598     0.22818086    -0.77011793
O       3.32059201     3.58138701     4.55874802    -0.16525180    -0.71649267    -0.01045565
O       1.00083097     1.86510300     0.24306402    -1.53787199     1.17837867    -1.47828279
O       4.37729600     3.65405300     8.90128502    -0.51817210    -0.56752161    -0.08572884
O       3.58096002     0.71054000     0.21951701     0.52754197     0.81216911    -0.06697983
O       1.79149698     4.71361900     9.03220802    -1.05932806    -0.85118201     0.44244100
O       2.91479000     0.90199199     4.74388000     1.00612986    -0.09556048    -0.99880427
O       0.60586599     4.49395598     4.55404501     0.14099884    -0.53720315     0.34410012
O       5.14775501     3.57066699     2.28795901     0.37473791    -0.35702352     1.34657876
O       0.09144098     2.05396599     6.57280198    -0.96886659    -0.13652203    -0.47957699
O       2.63703603     2.05234401     2.08220299     0.70663763     0.53345860     1.36953332
O       2.22594701     4.08281500     6.78103302    -0.50740020    -1.13314909    -1.00121185
O       0.12452700     0.66227999     2.23928598    -0.38956033     0.37687707     1.09356206
O       2.36340201     1.22758702     7.17868400     1.24377779     0.05356535    -0.60825664
O       2.62731599     4.69558601     2.49430099    -0.88804548     0.16152730     0.09930915
