# total energy = -19073.76061734 eV

CRYSTAL
PRIMVEC
        5.17600016     0.00000000     0.00000000
        0.00000000     5.50899976     0.00000000
        0.00000000     0.00000000     9.26300011
PRIMCOORD
22 1
Ti      1.75937301     3.37733600     3.39249100     1.51924717     0.70213331    -1.22186118
Ti      3.78434601     2.34048700     5.86030900    -1.12004469     0.20388778    -0.06764755
Ti      4.25990501     2.45513701     1.23637502    -0.04627833    -1.49913239    -0.73914178
Ti      0.84047201     3.12745501     8.10435302    -0.22329679     0.28881830     0.25885928
Ti      1.73411200     0.56884200     1.18447400     1.72613620    -0.09921814    -0.82483900
Ti      3.31550402     4.90583300     7.83254901    -0.21030706     0.82163540     1.30302811
Ti      0.83068498     0.10043202     6.11815400    -0.40753877     0.98400345    -0.74376103
Ti      4.43994699     5.04082501     3.42435102    -0.39851522     1.06949267     0.33928290
O       3.42525898     3.61398100     4.35011799     0.55956430    -1.46273404     1.53110690
O       0.77696201     2.00102101     0.40035302     0.11343480     0.47897459    -1.85381260
O       4.24656499     3.67879098     8.95430101     0.65663428    -0.66037112     0.64100094
O       3.33373698     0.78141101     0.22797898     0.13588671     0.59261816    -0.83246052
O       1.65930200     4.65086000     8.77202300    -1.05526058     0.78068825     1.67707491
O       4.18137299     0.72661598     5.00905299     1.11778597    -0.48401781    -1.19023429
O       1.03025900     4.85661899     4.35440898    -0.98183550     0.01010033     1.73648747
O       0.10133400     3.48799898     2.48535398    -0.73608808     0.26501296    -0.25136785
O       0.09799500     1.75285201     6.97683802    -0.32815799    -0.52384652    -0.46443628
O       2.69858902     2.08217600     2.19592202    -1.35763990     0.27963354     0.86917692
O       2.45867599     3.53047402     6.84044301    -0.74200728    -1.20162325    -0.29868517
O       5.04007199     0.87115900     2.27570898     0.48953308    -1.24568709     0.47505442
O       2.47486500     0.70504598     6.73750401     0.20934290     1.06548149    -0.52400439
O       2.47356000     4.83066898     2.36971700     1.07940453    -0.36584986     0.18117954
