# total energy = -18985.21077653 eV

CRYSTAL
PRIMVEC
        7.60600008     0.00000000     0.00000000
        0.00000000     7.60600008     0.00000000
       -1.89786986    -1.89786986     4.85670466
PRIMCOORD
22 1
Ti      5.92148602     5.42682298     0.72970299    -6.66744787     5.31660622     2.96038882
Ti      5.50049699     2.49699101     2.35329499   -10.07223918    -5.36221272    -4.86259757
Ti     -1.19632678     4.30686124     4.17255383    -0.15547004     9.76750343    -4.76453206
Ti      0.73143398     3.95003602     1.43695801     6.83139998    -9.60788800    20.05974633
Ti     -1.56152179     2.62473922     4.74897179   -22.69641103    48.68301438    32.97282210
Ti      5.53284020     1.38064525     4.13550682   -47.19817758   -41.02313806    -8.77862491
Ti     -0.62206379     1.99001523     3.86017182    64.47000322   -11.59661261   -35.24854775
Ti     -0.87997176    -0.12299577     4.11339679     5.45215535   -11.54105722    -0.32996239
O       4.22438399     5.18364899     1.49553503     1.44920103     2.90619586     1.50650426
O       5.01611100     6.65367498     2.25910001    -0.43088568    -3.31412287    -2.82801449
O      -0.05529500     5.58156901     1.54690602     1.17953978     5.65764441     1.12115540
O      -0.61726478     5.77840422     4.12745179     2.96550454     4.22144802    -0.91364673
O       6.39403501     3.93016298     1.82682300     5.20151332     4.76503497     8.44017839
O       6.32877999     0.94055202     2.08539203     2.29566302    -0.99547212     1.35917048
O       2.10413601     6.11243201     0.29116100     3.90836416    -1.52982289     2.42255677
O       2.24074000     4.36331699     0.59649098     6.18423276     1.75028324     0.28487294
O       4.22208525     1.11990221     2.64993382    -0.99715414     2.64519485     0.53467781
O       1.01972202     2.33060102     2.17699599    -0.68613847     1.48414517     0.50145529
O       4.65004020     4.29655324     4.07512383    -4.26477164     0.05021778    -1.60139086
O       5.68259498     3.47909901     0.92611998    -6.63989335    -2.02360703   -12.42067308
O       0.85645724     0.18832222     4.19575979    -1.91299608     1.15849323     0.31613936
O       6.90590297     1.66458800     0.19637598     1.78400816    -1.41184752    -0.73167787
