# total energy = -19960.13722451 eV

CRYSTAL
PRIMVEC
        5.93400000     0.00000000     0.00000000
        0.00000000     9.29699974     0.00000000
        0.00000000     0.00000000     4.64899994
PRIMCOORD
24 1
Ti      4.42203498     6.82082699     2.13631401     0.68954878     0.13840331     0.02073853
Ti      4.45719102     2.37563897     2.26416398    -1.20915890     1.02111374    -0.39372346
Ti      1.49095002     7.00697101     2.39802000    -0.57931552    -0.12149058    -0.61833820
Ti      1.42163399     2.26419800     2.45737701     1.18583101     0.47415582    -1.10896888
Ti      2.94620101     4.68354601     4.57489402    -0.11164788    -0.29790201     1.62553070
Ti      2.99315702     0.14217500     0.11684101     0.37196909    -0.51816387    -1.10445248
Ti      0.03405102     4.59027302     4.51675802     0.00352935     0.10178796     0.79836408
Ti      0.01327801     0.02305202     0.06067901    -0.68248442    -0.92772636    -0.62067893
O       4.56232198     5.51562099     0.77256000    -1.18922487     0.21265576     1.05343792
O       4.45613098     0.82927102     1.06088698     0.32105274     0.83197972     0.26895086
O       1.54445900     5.60555699     0.87283898     0.17771292    -0.37008550    -0.42846087
O       1.48793900     0.79366300     1.20848801    -0.69185429    -0.33508171    -1.33362091
O       4.35140601     8.56193301     3.85450597     0.80411384    -0.76028037    -0.45887678
O       4.52497800     3.66596499     3.72455602    -0.29021492     0.80561305     0.11247449
O       1.47757401     8.58899001     3.70798701    -0.23042081    -0.85471214     0.06613343
O       1.55559199     3.77270099     3.74549102    -0.44298761    -0.44671828    -0.34823677
O       2.97274703     5.92059398     3.09086600    -0.25465732     0.63016014     0.44905259
O       3.02914102     1.53221299     3.25475198    -0.45541247    -0.61158391     1.19965275
O       5.87226603     6.11513198     3.27862597     0.65153141     0.07652171    -0.52203878
O       5.82273202     1.49293999     3.28379598     0.72109340    -0.53735665     0.90569251
O       2.95968301     7.80174598     1.44525297    -0.10880861     0.56729972    -0.13822770
O       2.84246200     3.26999901     1.45277899     1.34834819    -0.29863271    -0.43651229
O       5.88186699     7.64681298     1.28304798     0.83327453     1.57784957     0.36684873
O       0.12193101     3.21806402     1.34139802    -0.86181687    -0.35780642     0.64525946
