# total energy = -19959.09065462 eV

CRYSTAL
PRIMVEC
        7.60600008     0.00000000     0.00000000
        0.00000000     7.60600008     0.00000000
       -1.89786986    -1.89786986     4.85670466
PRIMCOORD
24 1
Ti      3.64019099     6.76027699     1.32325799     1.63122132    -1.09062971     0.36521120
Ti      3.78911200     3.01673203     1.28743898     0.55717754     0.55032555    -1.48154013
Ti      0.12306800     6.54273101     1.21178399    -2.36468431    -1.06393060    -1.73344534
Ti      0.04805898     2.68046603     1.02894198    -0.65364254     1.40514594     1.59166591
Ti      5.81164422     2.73486021     3.50883782    -0.04525580     0.29305753     1.37303130
Ti      5.66193521    -1.14215078     3.52348380    -0.67933353    -0.15103977    -0.00863634
Ti      1.95065323     3.04536925     3.59804382    -0.17662123    -2.69085689     0.67358480
Ti      1.74480725    -0.90201877     3.75166784     1.21178965     1.66496321     0.17941653
O       3.54239602     4.84947599     1.10320899     0.96424323     0.17064032    -1.82138198
O       3.76752702     1.03168899     0.97875301    -0.57215525    -0.48440733    -1.89167391
O       0.22831300     4.52886703     0.86332199    -0.55573336     1.55923966    -0.78093996
O       0.22220698     0.75703298     0.75910101    -0.34961617     1.64354077    -0.38694731
O       5.68627620     4.66684322     3.95931382     0.32815387    -0.11336924     0.93036071
O       5.57703423     0.85441324     4.02781380     0.09168377    -0.44668075    -0.11098505
O       1.73649324     4.76850420     4.11715183     0.10049289     2.28281161     0.65932905
O       2.09503025     1.09274324     3.96917683    -0.92806574    -0.88501826     1.20770417
O       3.97328722     3.01895124     3.10499779    -2.61370397    -0.00253177     2.66449947
O       3.70324621    -1.01576975     3.21723681     0.16831630     0.19544685     0.83225586
O      -0.01391879     2.94033021     3.20963179     0.98618761    -0.79405517    -0.07448180
O      -0.08242375    -0.73538678     3.05507780     1.68028390    -0.28169402     2.66571535
O       5.75723998     6.45614200     1.67340102    -1.21552829     0.20794910    -1.09340599
O       5.64536498     2.80970900     1.66277102     3.05354558    -0.54454982    -2.16745568
O       1.83981298     6.70155599     1.72905999     0.76524029    -0.13622738     0.29050725
O       1.96559000     3.01771302     1.81717399    -1.38399552    -1.28812985    -1.88238760
