# total energy = -4988.54581565 eV

CRYSTAL
PRIMVEC
        3.16050641     0.00000000     0.00000000
        0.98060184     4.85397959     0.00000000
       -0.00000653    -0.00006484     4.97723597
PRIMCOORD
6 1
Ti      2.07055080     2.42695738     2.48861810     0.00000000     0.00000000     0.00000000
Ti      0.00000000     0.00000000     0.00000000     0.00000000     0.00000000     0.00000000
O       1.77135673     0.94595654     0.96999004     0.16165329    -0.21817798    -0.36736064
O       2.36974487     3.90795822     4.00724615    -0.16165329     0.21817798     0.36736064
O       0.29919139     1.48097457     3.45860903    -0.16197647     0.21864515    -0.36737633
O       0.68140391     3.37294006     1.51862716     0.16197647    -0.21864515     0.36737633
