# total energy = -4986.19253806 eV

CRYSTAL
PRIMVEC
        3.46194613     0.00000000     0.00000000
        0.17298178     3.45762177     0.00000000
       -1.81749469    -1.72884012     4.41959546
PRIMCOORD
6 1
Ti      0.12959648     2.59334762     1.10489875     0.00210136    -0.00219495     0.00057258
Ti      1.68783630    -0.86456639     3.31469648    -0.00210136     0.00219495    -0.00057258
O       0.04328186     0.86439979     0.71991596     0.00068906     0.00364557     2.13583316
O       1.77415077     0.86438135     3.69967931    -0.00068906    -0.00364557    -2.13583316
O      -0.04326479    -0.86438355     2.92971370     0.00363374     0.00060241     2.13690736
O       1.86069742     2.59316463     1.48988162    -0.00363374    -0.00060241    -2.13690736
