# total energy = -19931.39999999 eV

CRYSTAL
PRIMVEC
        7.24605380     0.00000000     0.00000000
        0.00002734     4.62719530     0.00000000
        0.00000000     0.00000000    11.06674581
PRIMCOORD
24 1
Ti      2.62636198     2.74207163     4.10568378     0.46896656     0.01834149     1.37375044
Ti      4.61971869     1.88512361     6.96106214    -0.46896656    -0.01834149    -1.37375044
Ti      6.24926422     1.88512517     1.42764497     0.46864852    -0.01824430    -1.37431686
Ti      0.99681651     2.74207025     9.63910102    -0.46864852     0.01824430     1.37431686
Ti      2.62634855     0.42847404     1.42768936     0.46896656     0.01834149    -1.37375044
Ti      4.61973212     4.19872132     9.63905668    -0.46896656    -0.01834149     1.37375044
Ti      0.99680302     0.42847236     6.96101775    -0.46864852     0.01824430    -1.37431686
Ti      6.24927765     4.19872300     4.10572811     0.46864852    -0.01824430     1.37431686
O       2.29343127     1.62931408     5.64727570     1.13102973     0.89595831    -1.08179720
O       4.95264946     2.99788110     5.41947023    -1.13102973    -0.89595831     1.08179720
O       1.32965700     1.62933276     0.11393836    -1.13027588     0.89561198    -1.08188822
O       5.91642379     2.99786248    10.95280721     1.13027588    -0.89561198     1.08188822
O       4.95263602     0.68428339     0.11390244    -1.13102973    -0.89595831    -1.08179720
O       2.29344471     3.94291179    10.95284313     1.13102973     0.89595831     1.08179720
O       5.91641030     0.68426477     5.64731156     1.13027588    -0.89561198    -1.08188822
O       1.32967031     3.94293047     5.41943431    -1.13027588     0.89561198     1.08188822
O       0.26328243     2.81452249     2.98940413    -1.79561001     0.65106373     0.69548212
O       6.98279830     1.81267269     8.07734173     1.79561001    -0.65106373    -0.69548212
O       3.88631767     1.81262968     2.54400397    -1.79566374    -0.65084672    -0.69585364
O       3.35976300     2.81456557     8.52274171     1.79566374     0.65084672     0.69585364
O       0.26326893     0.50092478     2.54396865    -1.79561001     0.65106373    -0.69548212
O       6.98281174     4.12627040     8.52277704     1.79561001    -0.65106373     0.69548212
O       3.35974957     0.50096785     8.07737700     1.79566374     0.65084672    -0.69585364
O       3.88633110     4.12622733     2.98936881    -1.79566374    -0.65084672     0.69585364
