# total energy = -19958.75394094 eV

CRYSTAL
PRIMVEC
        7.60600008     0.00000000     0.00000000
        0.00000000     7.60600008     0.00000000
       -1.89786986    -1.89786986     4.85670466
PRIMCOORD
24 1
Ti      3.81387400     6.71041400     1.12906798     0.23295437    -0.40109584     0.63800740
Ti      3.90382302     2.81786198     1.24461002    -0.38781197     0.16849011    -1.15256735
Ti     -0.06715101     6.76852200     1.23128798    -0.47137594    -0.57515753    -0.22970218
Ti     -0.03112298     2.86670800     1.25432900     0.81241722     0.77772814     1.43863945
Ti      5.59097223     2.90925322     3.69909979     3.79434829    -1.32967272     3.25593415
Ti      5.57593121    -0.96470277     3.57021984    -0.77516629     2.07942108     0.38854782
Ti      2.14319321     2.69562722     3.64973682    -4.52752511     0.10981006     0.06705928
Ti      1.83703925    -1.00082177     3.59917880     1.25252443     0.45363867    -0.12445764
O       3.75594798     4.67900599     0.71455598     0.42948674     0.02797413     1.07034164
O       4.24104800     0.97310399     0.69255401    -1.58369523    -0.65877807     0.28573066
O      -0.23851601     4.84497899     0.83982800     1.25321657    -0.15276652     0.46767895
O      -0.13008902     1.17389702     0.70936099     0.13716455    -3.47164259     0.75256346
O       5.41797424     4.85910120     4.03385981     0.77503800    -0.98016531     1.13316066
O       5.56194320     0.93245821     3.92207979     0.20266008     1.51287057     1.34389529
O       1.95478722     4.71935824     4.05064579    -0.43913301     0.96755096    -0.46595529
O       2.24030422     0.90559225     4.04220583    -1.29689243    -0.59527514     0.76260028
O       3.87922321     2.70711920     3.30792181    -0.90895421     0.72879515    -1.15227579
O       3.72600824    -0.82976877     3.18164181    -0.42138108    -0.79583386    -1.05881847
O       0.05736424     2.61417022     3.25802182     0.98575566     1.02973105    -0.53446235
O      -0.20058675    -0.74225375     3.19460983     3.42706556    -0.53536815    -0.27663049
O       5.63861898     6.56488099     1.63281202    -0.10641003     0.08264171    -0.87193185
O       5.77538002     2.84001498     1.96639499    -0.79022551     0.79082792    -4.96623724
O       1.91016202     6.68499899     1.61962699    -1.45732110     0.16920848    -0.40165274
O       2.06261401     2.61690501     1.65001901    -0.13674006     0.59706771    -0.36946715
