# total energy = -19075.98428555 eV

CRYSTAL
PRIMVEC
        7.60600008     0.00000000     0.00000000
        0.00000000     7.60600008     0.00000000
       -1.89786986    -1.89786986     4.85670466
PRIMCOORD
22 1
Ti      3.66720702     6.67477999     1.30827301    -0.31820936    -1.26582860    -0.08633870
Ti      3.85752699     2.89011600     1.27721999     0.13216915     1.42649356    -0.47272192
Ti      0.04932101     6.63798201     0.99945601     0.20846281    -0.72206528     1.17074095
Ti      0.11506700     2.82743199     1.11443797    -0.26041994     0.53241524    -0.86926022
Ti      5.79164624     2.84416722     3.42892983    -0.08313357    -0.06953911     1.16310837
Ti      5.95337223    -0.92905078     3.54483780     0.10364198     0.16409121     0.27499913
Ti      1.89324020     2.86306821     3.61573279     0.37691384    -1.38359571     0.98793544
Ti      1.41098224    -1.00027878     4.05528381     0.19499665     1.71995450    -3.11996671
O       3.53890900     4.68628302     0.89985798     0.65502605     1.92661804    -0.29179306
O       3.94840499     1.04571600     0.94444899    -0.40789667    -2.16489872     0.61224982
O       0.22919000     4.74730901     0.64820900    -0.15232815    -0.25150129     0.35380989
O      -0.02436501     0.91202000     0.59893302     0.09910115     0.68706870     1.25033410
O       5.72679123     4.74859523     3.96084679     0.28042313     0.42253628    -1.11522695
O       5.63393221     0.99364623     3.93990682     0.60184457    -1.17086873    -0.38581243
O       1.75075123     4.78615020     4.26328180     0.12364825    -0.36362406    -0.60242409
O       1.88899424     1.00255324     4.11435180    -0.12066629    -0.61404625    -0.34877876
O       3.92553723     2.96374022     3.20334480    -1.24076959    -0.00988384     0.40619228
O       0.09935022     2.79411425     3.10982081    -0.81412469     0.40656792     0.15543687
O       5.66680899     6.53743098     1.68495000     0.25454728     0.22072003    -0.01100073
O       5.80018700     2.89168501     1.45534999     0.26149543     0.16895934     0.79914158
O       1.80980498     6.64019800     1.99075201     0.06379089     0.31405805     0.33429727
O       1.94621899     2.68641398     1.67319301     0.04148759     0.02636873    -0.20492188
