# total energy = -19945.78335212 eV

CRYSTAL
PRIMVEC
        5.54217070     0.00000000     0.00000000
        2.26869736     5.44480034     0.00000000
        0.00000000     0.00000000    10.13190838
PRIMCOORD
24 1
Ti      3.35319832     3.22658374     3.75886574     1.39378500    -3.18160636     1.04578143
Ti      4.45766983     2.21821675     6.37304275    -1.39378500     3.18160636    -1.04578143
Ti      5.70403447     2.21821860     1.30704800    -3.18804620    -0.40159001     0.91475205
Ti      2.10683372     3.22658211     8.82486055     3.18804620     0.40159001    -0.91475205
Ti      2.21884975     0.50418355     1.30708861     1.39378500    -3.18160636    -1.04578143
Ti      5.59201844     4.94061711     8.82481994    -1.39378500     3.18160636     1.04578143
Ti      0.97248502     0.50418155     6.37300208     3.18804620     0.40159001     0.91475205
Ti      6.83838316     4.94061911     3.75890636    -3.18804620    -0.40159001    -0.91475205
O       2.55297891     1.91720682     5.17023531     1.14720095     1.79161502    -1.04617121
O       5.25788918     3.52759369     4.96167318    -1.14720095    -1.79161502     1.04617121
O       1.81584183     1.91722882     0.10431368     0.46398916    -0.81613015     0.88706229
O       5.99502640     3.52757177    10.02759448    -0.46398916     0.81613015    -0.88706229
O       4.12354059     0.80519339     0.10428079    -1.14720095    -1.79161502    -1.04617121
O       3.68732756     4.63960711    10.02762738     1.14720095     1.79161502     1.04617121
O       4.86067774     0.80517143     5.17026815    -0.46398916     0.81613015     0.88706229
O       2.95019031     4.63962914     4.96164029     0.46398916    -0.81613015    -0.88706229
O       1.58131024     3.31183638     2.73688124     0.46832404     1.28397340     1.19825665
O       6.22955785     2.13296413     7.39502725    -0.46832404    -1.28397340    -1.19825665
O       3.86118213     2.13291346     2.32910523     1.42555099     0.72873241    -0.09745924
O       3.94968596     3.31188705     7.80280310    -1.42555099    -0.72873241     0.09745924
O       0.44696164     0.58943602     2.32907284     0.46832404     1.28397340    -1.19825665
O       7.36390651     4.85536447     7.80283543    -0.46832404    -1.28397340     1.19825665
O       2.81533737     0.58948675     7.39505954    -1.42555099    -0.72873241    -0.09745924
O       4.99553072     4.85531376     2.73684890     1.42555099     0.72873241     0.09745924
