# total energy = -4985.17438885 eV

CRYSTAL
PRIMVEC
        3.58636693     0.00000000     0.00000000
        1.53609331     3.24074761     0.00000000
       -2.56126407    -1.62039529     4.70348389
PRIMCOORD
6 1
Ti      1.15197939     2.43068544     1.17587092     0.00064792    -0.00064792     0.00000000
Ti      1.40921702    -0.81033292     3.52761267    -0.00064792     0.00064792     0.00000000
O       0.38406058     0.81018265     0.76615903     0.00056307     0.00066000    -2.24523518
O       2.17713570     0.81016975     3.93732461    -0.00056307    -0.00066000     2.24523518
O      -0.38402826    -0.81016224     3.11790083     0.00066000     0.00056307    -2.24523518
O       2.94522449     2.43051460     1.58558281    -0.00066000    -0.00056307     2.24523518
