# total energy = -4983.79759343 eV

CRYSTAL
PRIMVEC
        3.52902372     0.00000000     0.00000000
        0.00000000     2.97739675     0.00000000
        0.00000000    -0.00006726     4.67409196
PRIMCOORD
6 1
Ti      1.76451176     1.48866470     2.33704612     0.00000000     0.00000000     0.00000000
Ti      0.00000000     0.00000000     0.00000000     0.00000000     0.00000000     0.00000000
O       1.76451176     0.58023766     0.91091173     0.00000000    -2.96884518    -2.78293995
O       1.76451176     2.39709179     3.76318047     0.00000000     2.96884518     2.78293995
O       0.00000000     0.90840024     3.24795874     0.00000000     2.96835590    -2.78174439
O       0.00000000     2.06892916     1.42613351     0.00000000    -2.96835590     2.78174439
