# total energy = -19961.61315880 eV

CRYSTAL
PRIMVEC
        7.60600008     0.00000000     0.00000000
        0.00000000     7.60600008     0.00000000
       -1.89786986    -1.89786986     4.85670466
PRIMCOORD
24 1
Ti      3.79130602     6.70134702     1.24558498     0.78523114     0.29178021    -0.25205665
Ti      3.84029000     2.90900800     1.17327899    -0.82871057    -0.12846007     0.28157987
Ti      0.03248101     6.55874598     1.17692000    -0.85828623     0.62942480     0.61023459
Ti     -0.01611800     2.82348099     1.23817099     1.23566312    -0.64669568    -1.23190520
Ti      5.71506122     2.77277523     3.60456381    -0.52739619    -0.66683205     0.45045873
Ti      5.65510920    -1.03945880     3.63050281     0.65988184     0.40516461     0.05379367
Ti      1.89395925     2.93252622     3.62450379     0.79590688     0.10797377    -0.27052258
Ti      1.88174822    -0.88580578     3.63531483    -0.42402212     0.05640103     0.48574944
O       3.80857000     4.82940001     0.81597899    -0.25838234    -0.41807824    -0.13441347
O       3.77314503     1.01784598     0.90569702     0.29781793     0.03804257    -1.03627374
O       0.00863501     4.66576402     0.78674200     0.33597157     0.74910635     0.32866372
O       0.00533501     0.82775302     0.65776600     0.00463184    -0.03488191     1.58602363
O       5.70926525     4.62654325     4.05831182     0.31355309     0.35328308    -0.20790693
O       5.58649925     0.87838920     4.13887583     0.57946259     0.73963981    -0.81726247
O       1.81318722     4.83190223     4.02578382     0.20161519     0.37072185     0.49037100
O       1.92082425     1.06866621     4.01971982     0.06949592    -1.35731183     1.06168731
O       3.84170121     2.93554121     3.34384580    -0.08582860    -0.09853242    -1.39543539
O       3.83182523    -0.82541978     3.26289581    -1.36738387    -0.58457497    -0.26700093
O       0.08169221     2.76986322     3.19920880    -1.35860150     0.11625633     0.39183267
O      -0.06461376    -0.92662879     3.20572980     0.97098184     0.05600148    -0.24379543
O       5.64950802     6.55059400     1.62288698     0.72631094     0.21961831    -0.43710287
O       5.77856302     2.76720199     1.59955402    -1.63445011     0.12232953     0.67849946
O       1.91999799     6.77575702     1.73073701    -0.70409969    -0.56612550    -0.56647517
O       1.90643502     2.84087902     1.58807903     1.07063809     0.24574973     0.44125700
