# total energy = -19884.66874087 eV

CRYSTAL
PRIMVEC
        7.64717433     0.00000000     0.00000000
        0.00002325     2.71296867     0.00000000
        0.00000000     0.00000000    12.16600936
PRIMCOORD
24 1
Ti      2.77174680     1.60770263     4.51350280    -0.54544791     0.54261301     0.61250076
Ti      4.87545099     1.10526578     7.65250692     0.54544791    -0.54261301    -0.61250076
Ti      6.59520352     1.10526666     1.56945345    -0.54445238    -0.54289943    -0.61137642
Ti      1.05199432     1.60770186    10.59655638     0.54445238     0.54289943     0.61137642
Ti      2.77173522     0.25121835     1.56950224    -0.54544791     0.54261301    -0.61250076
Ti      4.87546262     2.46175017    10.59650759     0.54544791    -0.54261301     0.61250076
Ti      1.05198270     0.25121742     7.65245813     0.54445238     0.54289943    -0.61137642
Ti      6.59521514     2.46175110     4.51355159    -0.54445238    -0.54289943     0.61137642
O       2.42038721     0.95528231     6.20822160     6.88550398    -0.57380925     1.94071592
O       5.22681063     1.75768616     5.95778813    -6.88550398     0.57380925    -1.94071592
O       1.40326117     0.95529332     0.12525591    -6.88374483    -0.57419311     1.94104760
O       6.24393672     1.75767515    12.04075345     6.88374483     0.57419311    -1.94104760
O       5.22679900     0.40120177     0.12521640    -6.88550398     0.57380925     1.94071592
O       2.42039884     2.31176664    12.04079296     6.88550398    -0.57380925    -1.94071592
O       6.24392509     0.40119081     6.20826106     6.88374483     0.57419311     1.94104760
O       1.40327264     2.31177766     5.95774867    -6.88374483    -0.57419311    -1.94104760
O       0.27785380     1.65018133     3.28634270     0.80724210    -0.14687767     4.55780295
O       7.36934404     1.06278708     8.87966697    -0.80724210     0.14687767    -4.55780295
O       4.10145108     1.06276193     2.79670081     0.80691814     0.14695531    -4.55751499
O       3.54574676     1.65020653     9.36930871    -0.80691814    -0.14695531     4.55751499
O       0.27784218     0.29369700     2.79666198     0.80724210    -0.14687767    -4.55780295
O       7.36935566     2.41927147     9.36934754    -0.80724210     0.14687767     4.55780295
O       3.54573519     0.29372214     8.87970575    -0.80691814    -0.14695531    -4.55751499
O       4.10146265     2.41924627     3.28630387     0.80691814     0.14695531     4.55751499
