# total energy = -19943.33544282 eV

CRYSTAL
PRIMVEC
        5.35820388     0.00000000     0.00000000
        2.44260552     5.15315683     0.00000000
        0.00000000     0.00000000     9.85500322
PRIMCOORD
24 1
Ti      3.38957691     3.05375594     3.65613588     2.52736732    -3.88950666     1.12214091
Ti      4.41123232     2.09940082     6.19886739    -2.52736732     3.88950666    -1.12214091
Ti      5.61622520     2.09940257     1.27132639    -5.45247005     0.37589799     1.37092865
Ti      2.18458412     3.05375439     8.58367704     5.45247005    -0.37589799    -1.37092865
Ti      2.16827428     0.47717760     1.27136589     2.52736732    -3.88950666    -1.12214091
Ti      5.63253499     4.67597931     8.58363755    -2.52736732     3.88950666     1.12214091
Ti      0.96328136     0.47717570     6.19882790     5.45247005    -0.37589799     1.37092865
Ti      6.83752796     4.67598120     3.65617543    -5.45247005     0.37589799    -1.37092865
O       2.55598823     1.81451410     5.02893271     0.58911092     1.47381293    -1.22212035
O       5.24482099     3.33864266     4.82607061    -0.58911092    -1.47381293     1.22212035
O       1.84332067     1.81453491     0.10146280     1.15580232    -0.80238632     0.20358774
O       5.95748863     3.33862194     9.75354026    -1.15580232     0.80238632    -0.20358774
O       4.02351834     0.76206422     0.10143078    -0.58911092    -1.47381293    -1.22212035
O       3.77729090     4.39109259     9.75357222     0.58911092     1.47381293     1.22212035
O       4.73618596     0.76204345     5.02896468    -1.15580232     0.80238632     0.20358774
O       3.06462322     4.39111338     4.82603860     1.15580232    -0.80238632    -0.20358774
O       1.68040704     3.13444213     2.66208224     0.47733833     0.24991595     0.30611566
O       6.12040213     2.01871464     7.19292109    -0.47733833    -0.24991595    -0.30611566
O       3.83064004     2.01866668     2.26545075     1.79572571    -0.13114816    -1.06187474
O       3.97016919     3.13449008     7.58955237    -1.79572571     0.13114816     1.06187474
O       0.45910437     0.55786364     2.26541927     0.47733833     0.24991595    -0.30611566
O       7.34170480     4.59529313     7.58958385    -0.47733833    -0.24991595     0.30611566
O       2.74886652     0.55791159     7.19295246    -1.79572571     0.13114816    -1.06187474
O       5.05194271     4.59524517     2.66205076     1.79572571    -0.13114816     1.06187474
