# total energy = -4984.95719918 eV

CRYSTAL
PRIMVEC
        3.42390277     0.00000000     0.00000000
        0.17108089     3.41962593     0.00000000
       -1.79752222    -1.70984188     4.37102848
PRIMCOORD
6 1
Ti      0.12817235     2.56484930     1.09275700     0.00205097    -0.00220806     0.00069368
Ti      1.66928864    -0.85506566     3.27827124    -0.00205097     0.00220806    -0.00069368
O       0.04280624     0.85490089     0.71200480     0.00084615     0.00421995     2.49437388
O       1.75465461     0.85488265     3.65902349    -0.00084615    -0.00421995    -2.49437388
O      -0.04278935    -0.85488483     2.89751904     0.00422355     0.00080810     2.49543575
O       1.84025020     2.56466832     1.47350930    -0.00422355    -0.00080810    -2.49543575
