# total energy = -19065.20583333 eV

CRYSTAL
PRIMVEC
        7.60600008     0.00000000     0.00000000
        0.00000000     7.60600008     0.00000000
       -1.89786986    -1.89786986     4.85670466
PRIMCOORD
22 1
Ti      3.88504400     6.70754998     1.30541598    -0.72024160     0.40898656    -1.87975222
Ti      3.44327598     2.89182699     1.29988798     3.91150579    -0.78588625     2.13156461
Ti     -0.16714698     6.61506102     1.02667700     0.75391072     0.22847937    -0.69864072
Ti      0.33092401     2.35239698     0.97898601    -1.17501926     3.47106177     1.90717896
Ti      5.87930223     2.79383124     3.56957879    -1.75735609     1.78934294    -2.23280801
Ti      6.27363623     0.18806721     3.35599883     2.68812123    -2.18312708    -2.51113234
Ti      1.71289421     2.68560524     3.87676582     1.80824698     1.09794425    -3.80474352
Ti      1.58951124    -0.88321678     4.04269379    -0.69886826    -2.05388847    -1.99761266
O       4.07038500     4.85576601     0.59984501    -0.59704046     0.14745128     7.34008881
O       4.45399199     0.91281499     0.72350003    -0.68526430    -2.23015617     2.52125941
O       0.45083002     4.22664702     0.70004800     1.83633784     2.66129510     0.63413558
O       6.88291102     0.96763902     1.08417898     0.63283563    -4.38098966     0.64068624
O       5.43794724     4.56732922     4.05691183     0.45044073     0.12281110     1.87984195
O       5.01903825     1.13428223     4.14592182    -1.19908325    -1.34955815    -1.13158329
O       1.69898923     4.78812022     4.18283479    -0.90077758     1.02735638     0.49256416
O       2.02224922     0.85885420     4.41234881     0.36687573     2.32577142    -3.72421320
O       3.39898120     2.97510620     3.21866284    -0.35763235    -0.29884817    -1.91046251
O       0.16587225     2.75085724     2.89666679    -1.03407288    -0.56598743     0.96055756
O       5.77491599     6.51152998     2.06389399    -0.67133971    -0.48575330    -0.52937671
O       5.51347501     2.91085303     1.60849198    -1.20944275     0.34705612     3.01194897
O       2.00085199    -0.77381399     2.03183199     0.75081331    -0.54235307     0.20256161
O       2.03054100     1.51956502     0.42751600    -2.19294972     1.24899096    -1.30206215
