# total energy = -19518.35897792 eV

CRYSTAL
PRIMVEC
        7.60600008     0.00000000     0.00000000
        0.00000000     7.60600008     0.00000000
       -1.89786986    -1.89786986     4.85670466
PRIMCOORD
23 1
Ti      3.78100998     6.76599401     1.14469400     0.81570978    -0.63542550     0.71726606
Ti      3.73407799     2.85103901     1.19013398     1.22751221     0.48213421     0.28438751
Ti     -0.00580899     6.67145300     1.17019400    -0.24611020    -0.53575613     0.13659608
Ti      0.03749300     2.79278802     1.22451298    -1.33290922     0.12388248     0.58724995
Ti      5.55986221     2.81986523     3.69477483    -0.97957216    -0.65911899    -0.15304497
Ti      5.80004725    -0.99567176     3.60302581    -0.91601395     0.20272719     0.34286316
Ti      1.88573721     2.94417024     3.66268383     0.76646079    -1.32975062     0.61899923
Ti      1.96153021    -0.88054676     3.53869283     0.79279713     0.31497517     0.89643730
O       3.86076799     4.79307501     0.81115898    -0.87790659    -0.35267090    -0.09118832
O       3.99116198     1.00285698     0.77014600    -0.39089087    -0.97791148    -0.53841388
O       0.04158301     4.64592802     0.90850701     0.33776132     1.55964950    -0.29062835
O      -0.09773798     0.87695698     0.88162898     0.32239254     0.09709183    -0.59248806
O       5.54543822     4.72186522     4.03847683     0.88122562    -0.05875487     0.25060089
O       5.60546322     0.92945422     4.23669980     0.60480134    -1.12904972    -2.45504010
O       1.99637224     4.72560724     4.00419381    -0.66734087     1.56048536    -0.06888528
O       1.88330622     0.96194724     4.08515582    -0.77326239    -0.28263479    -0.10505094
O       3.70086725     2.69221223     3.41755580     0.92107774     0.50813065    -1.31126413
O       3.81708923    -1.02912577     3.09356682     0.19268086     0.37379791     0.77541158
O       0.08717825    -1.07799079     3.10922681    -0.54933233     0.05420864     1.50691255
O       5.76327202     6.60334498     1.73466700    -0.28094378     0.23881778    -1.07820177
O       5.63387898     2.71077301     1.74709203     1.23918862     0.66829244     0.70918045
O       1.96857398     6.94233699     1.62677098    -0.58817555    -0.47789266    -1.00994821
O       1.89610501     2.69828999     1.58216600    -0.49914978     0.25477251     0.86824926
