# total energy = -39037.06236898 eV

CRYSTAL
PRIMVEC
        7.60600008     0.00000000     0.00000000
        0.00000000     7.60600008     0.00000000
       -3.79573973    -3.79573973     9.71340985
PRIMCOORD
46 1
Ti      1.98967444     4.75510946     6.08253265     0.80781212     0.57455512    -0.19561192
Ti      3.80167101     6.82781700     1.25391402    -0.32848400    -0.45830214    -0.28613021
Ti      2.00532047     0.77815446     6.07629963     0.60933856    -0.08796621     1.16261137
Ti      3.73687802     2.80516098     1.24909099     0.60349033    -0.76052411     1.24827182
Ti     -1.78965354     4.77043946     6.07920063    -0.84475991     0.28639452    -0.39416903
Ti      0.00875799     6.67781398     1.23668300     0.53869979     0.03361667    -1.64282677
Ti     -1.85606253     0.92776747     6.09553363    -1.16830380    -0.34773515    -1.23738576
Ti     -0.10985000     2.88340799     1.25089898     0.06164531    -0.23742270    -1.04248733
Ti      3.79354444     1.00730144     8.50695160    -0.89585958    -0.50723359     0.21845618
Ti      5.62470199     2.76784499     3.71963901    -0.04253660    -0.31537086     0.35853224
Ti      3.82534947    -2.80008755     8.44075561    -0.10622080     0.19686224     0.91910236
Ti      5.72330401    -1.06474701     3.45928698    -0.07984281     0.70652090     1.81531752
Ti     -0.07982253     0.96836246     8.32470164     1.08555950     0.61196237     2.50686096
Ti      1.80706702     2.89630102     3.54485097    -0.17220895    -0.91736069     1.30485745
Ti      0.02798146    -2.78442353     8.48386265     0.39226281    -0.39460020     0.59999440
Ti      1.83766500    -0.95514398     3.68341598     0.54997228    -0.11034716     0.28973824
O       2.04477344    -0.99851858     5.77331364    -0.06188930    -0.34303285    -1.61327707
O       3.86045202     0.96359701     0.72212898    -0.14121404     1.27213192     0.00294263
O      -1.88671655     2.88791245     5.81331261     0.22334204    -0.67332460    -1.54056985
O       0.08257700     4.74743898     0.77388098    -0.08139473    -0.13012281    -0.03284920
O      -1.99075958    -0.85885155     5.70183364     0.65230197    -1.99912961    -0.14134079
O      -0.08972502     0.94529298     0.83830699     0.32418486     0.59586649    -0.03831999
O       3.65764145     2.86706244     8.89463162     0.43091422     0.20161082     0.23244170
O       5.56026698     4.72371300     4.10291299    -0.01458022     0.25931025    -0.15150385
O       3.94824544    -0.93013258     8.85538863    -0.21970033    -0.36067603     0.94470798
O       5.84062303     0.84852699     4.01802503    -0.08283455     1.08823242     0.02519528
O       0.05077345     2.81661344     9.06384663    -0.09665269    -0.98879085    -1.82213814
O       1.86657400     4.68177300     4.07763700     0.57832308    -0.03296207    -0.30967406
O      -0.08576556    -0.77585756     9.09962563    -0.32135150     0.10303211    -1.68035898
O       1.68603899     0.96480999     4.23317701    -0.08895686     0.69010106    -1.29797692
O       1.96227545     0.73266744     8.05200861    -0.64355970     0.92391984     0.33090239
O       3.76447102     2.56547703     3.23272599     0.00397056     0.69874819     0.13341356
O       1.98439146    -2.62835858     7.99576463    -2.25913380    -0.55526387     1.08317762
O       3.89085998    -0.80174698     3.13089302    -1.29178133    -0.49307555     0.86634330
O      -1.97739954     1.04291644     8.03354964     1.53558628     0.10673013     0.33717794
O      -0.14756399     2.89099602     3.29344299     0.96139805     0.04529206    -0.62847606
O      -1.91355457    -2.87000255     8.08037463     2.48006877     0.14862524    -0.23959219
O       0.01297601    -1.19474898     3.23964001     0.02407350     0.49629946     0.02931162
O       3.83904447     4.69213943     6.51119363     0.49821879    -0.42687707    -0.62048944
O       5.78512699     6.57837300     1.44706302    -2.03548759    -0.30872404     1.54748020
O       3.82743946     0.93496243     6.39405062    -0.43549336     0.79969925     0.06768097
O       5.65242902     2.97853898     1.55629399    -0.91345878     0.18297545     0.54650618
O       0.15260445     4.71496247     6.26382660    -2.02181292    -0.30478742     1.52122949
O       1.86209002     6.65379600     1.66676498     1.60549743     0.10842295     0.20393252
O       0.03544943     0.84539447     6.56255261    -0.06775579     0.38945594    -1.86119836
O       1.82847298     2.84115202     1.72448102     0.44861345     0.23326419    -1.51981127
