# total energy = -19073.33348618 eV

CRYSTAL
PRIMVEC
        5.17600016     0.00000000     0.00000000
        0.00000000     5.50899976     0.00000000
        0.00000000     0.00000000     9.26300011
PRIMCOORD
22 1
Ti      2.08126799     3.38092102     3.20792303    -0.02784094     2.48260183     1.36696298
Ti      3.53176601     2.14211300     5.80215501     0.14817273    -0.24257262    -1.24709400
Ti      4.50072501     2.39750802     1.29583602     1.51839742    -1.41790941    -1.17545429
Ti      0.51045200     2.98530303     8.05320503    -0.22404601    -0.77870748     0.32728716
Ti      1.95577699     0.60245502     1.44074200    -1.42700135    -2.12508414    -2.08068889
Ti      2.91963499     5.08828998     7.99542400     0.71253420     1.89551874     2.78139858
Ti      0.69719600     0.15573401     6.01553198     0.08599006    -0.21581539    -0.92447262
Ti      4.64905397     4.86133999     3.43145199    -0.82288727     1.26084195     0.39848283
O       3.74338902     3.49129998     4.48743398    -0.86126203    -0.61776330     0.48613228
O       0.98853300     1.95426698     0.26256098    -1.05544750     0.67773173    -0.60070582
O       4.17705300     3.42761303     8.98436601    -1.00516930     1.27796267    -0.11200269
O       3.38365099     0.91012401     9.22817903     0.80902851    -0.57877585     0.22433038
O       1.60952901     4.87730802     0.15347701    -0.41713336    -1.50743320    -1.76184061
O       4.16503301     0.76644001     4.73412800     0.30856489    -0.25707287     0.72367839
O       1.22408800     5.06269802     4.26334102     0.23541878    -1.30298234     1.18789767
O       0.39225999     3.63405602     2.29529801     0.01819570    -1.56961124     0.16300209
O       4.93937898     1.54204198     6.93233400     0.04333390     1.06644462     0.99511705
O       2.77605401     2.17233902     2.04222497     0.83154238    -0.00451897     1.16734683
O       1.56404702     4.08054203     6.99099700     0.59338358     0.27748513    -1.18475578
O       0.10590498     0.68695801     2.26193201     0.64139792     2.11900297    -1.31560004
O       2.20723398     1.14123498     6.76205598     0.18854755    -0.94940873     0.15605368
O       3.07684302     4.72834298     2.28448301    -0.29371985     0.51006695     0.42492458
