# total energy = -19519.20436157 eV

CRYSTAL
PRIMVEC
        7.60600008     0.00000000     0.00000000
        0.00000000     7.60600008     0.00000000
       -1.89786986    -1.89786986     4.85670466
PRIMCOORD
23 1
Ti      3.80127101     6.62761898     1.16380302     0.69080734     0.46451495     0.34609478
Ti      3.82238201     2.82200999     1.19398797    -0.09550495    -0.32394935     1.33215563
Ti      0.06560401     6.71621701     1.19988899    -0.77576716    -0.17253343     0.08705604
Ti     -0.02727300     2.86199398     1.15647100    -0.04502620    -0.13335777     0.56085371
Ti      5.60586222     2.87622621     3.72499979    -1.08554690    -0.74779509    -0.19476782
Ti      5.73100020    -1.01044777     3.56132580    -0.54174629     1.38496071    -0.15638766
Ti      1.90060222     2.81613622     3.69622779     1.24742233     0.75457535    -0.42858120
Ti      1.90912922    -0.92200976     3.60580182     0.54212759    -0.86939366     0.35750483
O       3.93515502     4.72162698     0.87492902    -0.64708828    -0.39194502    -0.50726933
O       3.74302299     0.89663899     0.80546202     0.13616259     0.92057432    -0.66397144
O      -0.22144200     4.77159603     0.85733499     0.94264596     0.23821177    -0.12721155
O       0.02122101     0.94092102     0.74381900     0.07337700    -0.37932836     0.22480706
O       5.73884123     4.79810124     3.98698180     0.41463682    -0.81711411     0.10328459
O       5.68367821     0.97429522     4.15630783     0.67379743     0.19079058    -1.31675806
O       1.83904922     4.77154025     4.03629482    -0.21127328    -0.59255285    -0.26958207
O       1.93748524     0.93533920     4.09953981    -0.59401607     0.28543832     0.04240728
O       3.77182722     2.85345423     3.38698883    -0.02645949     0.18104995    -1.11035857
O       3.82230723    -0.76336078     3.12578583    -0.35685382    -0.62551621     0.90119950
O       0.04649420    -0.81715577     3.13813079    -0.27954407    -0.02483892     0.43037660
O       5.69984002     6.67337000     1.61723500     0.57465951     0.08206399    -0.11040501
O       5.68930701     2.68560201     1.73320599     0.81247738     0.21762957     0.08543728
O       1.93300401     6.51833001     1.58837198    -0.62203313     0.02804278     0.03765356
O       1.89008800     2.77979900     1.67585302    -0.82725429     0.33047301     0.37646209
