# total energy = -39040.31887458 eV

CRYSTAL
PRIMVEC
        7.60629642    -0.00000847    -0.00005503
       -0.00000847     7.60629642    -0.00005503
       -3.80314186    -3.80314186     9.70738094
PRIMCOORD
46 1
Ti      1.90148231     4.68673966     6.09663481    -0.00010979     0.14921994    -0.04830308
Ti      3.83026837     6.65961525     1.20938221    -0.02150600     0.02271673    -0.10021315
Ti      1.90154565     1.02323067     5.96471725     0.00049314    -0.13953485     0.04474390
Ti      3.79612183     2.84935789     1.22835409     0.04473130    -0.02150831     0.00593925
Ti     -1.90168471     4.76073983     6.05673755     0.00033579    -0.00376333     0.03801095
Ti     -0.02738546     6.65959980     1.20942170     0.02223877     0.02281264    -0.09996967
Ti     -1.90171539     0.93362177     6.09028021    -0.00039929     0.07749925     0.15435598
Ti      0.00668313     2.84931138     1.22839349    -0.04456186    -0.02177262     0.00613903
Ti      3.90053482     0.94296000     8.54143512    -0.16778794    -0.01459462    -0.05483111
Ti      5.70493754     2.84219615     3.64116036    -0.00008485     0.06681348     0.04515682
Ti      3.79409081    -2.85214641     8.49482427     0.02677779     0.05971955    -0.05383995
Ti      5.70481971    -0.93811454     3.64063834    -0.00017484    -0.06546391     0.06843739
Ti     -0.09734682     0.94298936     8.54132960     0.16768278    -0.01463807    -0.05402250
Ti      1.90175844     2.88342803     3.67358445     0.00021572     0.13208610     0.08887253
Ti      0.00941802    -2.85212567     8.49487308    -0.02680299     0.05992267    -0.05402301
Ti      1.90165197    -0.98278779     3.50186591    -0.00029285     0.09657710     0.03617338
O       1.90163129     2.86022452     5.64078683     0.00003985    -0.08959064     0.05681857
O       3.83524500     4.75357105     0.80395455    -0.02682896    -0.03118364     0.03310605
O       3.79392421     0.94959720     0.77034000    -0.02485769     0.03125100    -0.00373581
O      -1.90154675     2.83225310     5.68954632     0.00004294     0.06126864     0.03201950
O      -0.03204444     4.75357111     0.80399662     0.02640832    -0.03119495     0.03329811
O      -1.90157072    -0.92800286     5.67414929    -0.00001388    -0.11357261    -0.09264459
O       0.00933191     0.94959355     0.77035763     0.02477619     0.03114301    -0.00349979
O       3.71088913     2.82844069     8.87047003    -0.10007226     0.04714428     0.02713003
O       5.70468146     4.75468328     4.07919108     0.00008922    -0.01539166     0.03490762
O       3.72951315    -0.92880325     8.89577445    -0.03508246    -0.05294958     0.14668946
O       5.70467348     0.95135814     4.07097724     0.00012856     0.01295991     0.03252550
O       0.09222451     2.82841978     8.87051121     0.10025429     0.04769244     0.02681019
O       1.90146989     4.84297781     4.11502567    -0.00004962    -0.11983993    -0.22752832
O       0.07359541    -0.92877485     8.89582181     0.03537556    -0.05317120     0.14652414
O       1.90149053     0.85266045     4.08271470    -0.00001568     0.05829362    -0.24041418
O       3.78159648     2.85063324     3.24530410     0.11642834    -0.00143982    -0.01415367
O       1.90158797    -2.81862604     8.08715202     0.00017921    -0.02376831    -0.05747755
O       3.81411801    -0.95107911     3.20510852     0.04093069    -0.00312003    -0.10438014
O      -1.90153642     0.96177653     8.05841837    -0.00113334     0.06793988     0.20899914
O       0.02152878     2.85062857     3.24530920    -0.11633732    -0.00154678    -0.01406548
O      -1.90156614    -2.86217916     8.07109769     0.00005425    -0.04579034     0.04542678
O      -0.01096019    -0.95107739     3.20515872    -0.04134875    -0.00304290    -0.10448479
O       3.78374575     4.83385519     6.46160685     0.06477048     0.07012147     0.07105143
O       5.70470183     6.66365777     1.63781930     0.00007379     0.05921690    -0.04434743
O       3.67853489     0.86712589     6.53818571     0.09515913    -0.15307377    -0.03297698
O       5.70471948     2.84318978     1.66340369    -0.00005605    -0.05770226     0.10110404
O       0.01936456     4.83385761     6.46164035    -0.06451466     0.07009858     0.07114836
O       1.90156958     6.64451062     1.56460629     0.00000026    -0.04679692    -0.06712844
O       0.12464846     0.86712730     6.53824627    -0.09504549    -0.15321467    -0.03303946
O       1.90156467     2.86167258     1.62881263    -0.00011107     0.03316801    -0.05030931
