# total energy = -4989.29853865 eV

CRYSTAL
PRIMVEC
        3.65012051     0.00000000     0.00000000
        0.72278855     3.57784242     0.00000000
       -2.18648778    -1.78894842     4.68206860
PRIMCOORD
6 1
Ti      0.54196559     2.68351864     1.17051728     0.00116857    -0.00116857     0.00000000
Ti      1.64445569    -0.89462463     3.51155148    -0.00116857     0.00116857     0.00000000
O       0.18073538     0.89445538     0.76267077     0.00012418     0.00069266     0.27014797
O       2.00568578     0.89443854     3.91939803    -0.00012418    -0.00069266    -0.27014797
O      -0.18071143    -0.89443578     3.10370497     0.00069266     0.00012418     0.27014797
O       2.36713248     2.68332960     1.57836378    -0.00069266    -0.00012418    -0.27014797
