# total energy = -19910.21263473 eV

CRYSTAL
PRIMVEC
        6.54503969     0.00000000     0.00000000
        2.67922355     6.43004992     0.00000000
        0.00000000     0.00000000    11.96530133
PRIMCOORD
24 1
Ti      3.95996753     3.81044175     4.43904145    -0.19665938    -2.14747872     0.52467108
Ti      5.26429580     2.61960835     7.52626001     0.19665938     2.14747872    -0.52467108
Ti      6.73619309     2.61961054     1.54356144    -0.20232995    -1.13405977     0.18956956
Ti      2.48807030     3.81043982    10.42174008     0.20232995     1.13405977    -0.18956956
Ti      2.62035589     0.59541676     1.54360941    -0.19665938    -2.14747872    -0.52467108
Ti      6.60390749     5.83463354    10.42169211     0.19665938     2.14747872     0.52467108
Ti      1.14845850     0.59541440     7.52621198     0.20232995     1.13405977     0.18956956
Ti      8.07580488     5.83463590     4.43908942    -0.20232995    -1.13405977    -0.18956956
O       3.01494653     2.26412995     6.10580170     1.82147171     2.07176973    -0.79793213
O       6.20931675     4.16592016     5.85949976    -1.82147171    -2.07176973     0.79793213
O       2.14442273     2.26415594     0.12318949    -0.23318912    -0.74570992     1.56582297
O       7.07984070     4.16589429    11.84211158     0.23318912     0.74570992    -1.56582297
O       4.86970508     0.95089505     0.12315064    -1.82147171    -2.07176973    -0.79793213
O       4.35455826     5.47915506    11.84215042     1.82147171     2.07176973     0.79793213
O       5.74022895     0.95086912     6.10584048     0.23318912     0.74570992     1.56582297
O       3.48403427     5.47918108     5.85946091    -0.23318912    -0.74570992    -1.56582297
O       1.86745210     3.91112105     3.23212642     0.62366887     2.68771191     2.55957323
O       7.35681118     2.51892906     8.73317504    -0.62366887    -2.68771191    -2.55957323
O       4.55987223     2.51886923     2.75056237     0.63149248     2.08321885     1.55550359
O       4.66439104     3.91118089     9.21473889    -0.63149248    -2.08321885    -1.55550359
O       0.52784041     0.69609587     2.75052411     0.62366887     2.68771191    -2.55957323
O       8.69642292     5.73395423     9.21477708    -0.62366887    -2.68771191     2.55957323
O       3.32477937     0.69615578     8.73321317    -0.63149248    -2.08321885     1.55550359
O       5.89948390     5.73389434     3.23208823     0.63149248     2.08321885    -1.55550359
