# total energy = -19925.76846537 eV

CRYSTAL
PRIMVEC
        6.20020724     0.00000000     0.00000000
        2.24101358     6.20671299     0.00000000
        0.00000000     0.00000000    11.27621581
PRIMCOORD
24 1
Ti      3.57529958     3.67809227     4.18339566     0.00892764    -2.32460979     0.74475682
Ti      4.86592147     2.52862055     7.09282027    -0.00892764     2.32460979    -0.74475682
Ti      6.26027023     2.52862266     1.45466729    -0.51544261    -0.90618102     0.16429561
Ti      2.18095084     3.67809035     9.82154877     0.51544261     0.90618102    -0.16429561
Ti      2.45479294     0.57473594     1.45471250     0.00892764    -2.32460979    -0.74475682
Ti      5.98642812     5.63197701     9.82150356    -0.00892764     2.32460979     0.74475682
Ti      1.06044408     0.57473366     7.09277506     0.51544261     0.90618102     0.16429561
Ti      7.38077699     5.63197935     4.18344087    -0.51544261    -0.90618102    -0.16429561
O       2.75150377     2.18548908     5.75416662     1.82201756     2.13096631    -0.80199654
O       5.68971727     4.02122374     5.52204931    -1.82201756    -2.13096631     0.80199654
O       1.92684320     2.18551412     0.11609499    -0.35513838    -0.49643675     1.36037659
O       6.51437792     4.02119875    11.16012063     0.35513838     0.49643675    -1.36037659
O       4.56921062     0.91786728     0.11605840    -1.82201756    -2.13096631    -0.80199654
O       3.87201043     5.28884554    11.16015722     1.82201756     2.13096631     0.80199654
O       5.39387125     0.91784224     5.75420321     0.35513838     0.49643675     1.36037659
O       3.04734973     5.28887060     5.52201272    -0.35513838    -0.49643675    -1.36037659
O       1.58837932     3.77527458     3.04598721     0.56900617     2.27003117     2.19500532
O       6.85284172     2.43143824     8.23022872    -0.56900617    -2.27003117    -2.19500532
O       4.20326510     2.43138043     2.59215660     0.81220768     1.85700180     1.12215145
O       4.23795594     3.77533240     8.68405915    -0.81220768    -1.85700180    -1.12215145
O       0.46787267     0.67191813     2.59212057     0.56900617     2.27003117    -2.19500532
O       7.97334838     5.53479470     8.68409518    -0.56900617    -2.27003117     2.19500532
O       3.11744928     0.67197594     8.23026462    -0.81220768    -1.85700180     1.12215145
O       5.32377176     5.53473688     3.04595124     0.81220768     1.85700180    -1.12215145
