# total energy = -4904.14186261 eV

CRYSTAL
PRIMVEC
        4.95169887     0.00000000     0.00000000
       -0.00000647     2.12215680     0.00000000
       -2.47587784    -1.06115517     5.37369810
PRIMCOORD
6 1
Ti     -0.00021158     1.59168350     1.34342448    -0.05606858    -0.03675188    86.39183417
Ti      2.47602590    -0.53068182     4.03027353     0.05606858     0.03675188   -86.39183417
O       0.00005261     0.53052620     0.87533150     0.05645476     0.03778392   -77.69897410
O       2.47576156     0.53047543     4.49836655    -0.05645476    -0.03778392    77.69897410
O      -0.00002070    -0.53056460     3.56218055     0.00046923    -0.00098448     0.43005702
O       2.47583483     1.59156618     1.81151750    -0.00046923     0.00098448    -0.43005702
