# total energy = -19933.69588031 eV

CRYSTAL
PRIMVEC
        4.72051126     0.00000000     0.00000000
        1.23671380     4.86945909     0.00000000
        0.00000000     0.00000000     8.51650040
PRIMCOORD
24 1
Ti      2.44383379     2.88563709     3.15956107     3.25921771    -1.20833872     0.51968442
Ti      3.51339140     1.98382232     5.35693981    -3.25921771     1.20833872    -0.51968442
Ti      4.57497492     1.98382400     1.09865537    -5.62446894     0.29182983     2.67532356
Ti      1.38225030     2.88563559     7.41784560     5.62446894    -0.29182983    -2.67532356
Ti      1.82547699     0.45090758     1.09868952     3.25979364    -1.20838371    -0.52290678
Ti      4.13174822     4.41855201     7.41781146    -3.25979364     1.20838371     0.52290678
Ti      0.76389341     0.45090571     5.35690567     5.62437407    -0.29209954     2.67752854
Ti      5.19333180     4.41855384     3.15959521    -5.62437407     0.29209954    -2.67752854
O       1.92953958     1.71461943     4.34590517    -2.46320876    -1.39799493    -0.91439107
O       4.02768557     3.15483998     4.17059571     2.46320876     1.39799493     0.91439107
O       1.30168459     1.71463908     0.08768217     2.12213586    -1.34953218    -0.89504891
O       4.65554067     3.15482041     8.42881847    -2.12213586     1.34953218     0.89504891
O       3.40932875     0.72011033     0.08765454     2.46272976     1.39790725    -0.91425197
O       2.54789644     4.14934907     8.42884610    -2.46272976    -1.39790725     0.91425197
O       4.03718385     0.72009072     4.34593280    -2.12252101     1.34983197    -0.89553099
O       1.92004130     4.14936874     4.17056808     2.12252101    -1.34983197     0.89553099
O       0.92374653     2.96188116     2.30051936    -0.96509221    -2.49559773    -3.09399342
O       5.03347862     1.90757825     6.21598152     0.96509221     2.49559773     3.09399342
O       3.01623500     1.90753284     1.95775819     1.22432661    -3.22084321    -2.96581642
O       2.94099020     2.96192661     6.55874255    -1.22432661     3.22084321     2.96581642
O       0.30538971     0.52715151     1.95773098    -0.96477082    -2.49553345     3.09303748
O       5.65183548     4.34230794     6.55876975     0.96477082     2.49553345    -3.09303748
O       2.32263338     0.52719692     6.21600867    -1.22465957     3.22089154    -2.96546161
O       3.63459181     4.34226249     2.30049216     1.22465957    -3.22089154     2.96546161
