# total energy = -19517.57620048 eV

CRYSTAL
PRIMVEC
        5.93400000     0.00000000     0.00000000
        0.00000000     9.29699974     0.00000000
        0.00000000     0.00000000     4.64899994
PRIMCOORD
23 1
Ti      4.47647398     6.87263799     2.33493302     0.13923403     1.23003652    -0.71621885
Ti      4.47748301     2.34082800     2.31237298    -0.30927246    -1.28066465     0.62404759
Ti      1.44894197     7.05267499     2.36562599     0.06398938     0.84102847    -1.24702458
Ti      1.49476401     2.38418799     2.23632100     0.16258300    -1.94263602     0.40778380
Ti      2.97713401     4.60858599     0.04122598    -1.07294129    -0.60990909     0.11587092
Ti      2.98873098     9.22341902     4.54628399    -1.47228981     0.60329081     1.07981102
Ti      5.92836299     4.68677098     0.08626600     0.81738871     0.10098988    -0.60444344
Ti      5.81567999     9.26667101     4.61295599     1.32121816     0.95028548     0.62450293
O       4.38300699     5.53297303     0.97357300     0.65522840     0.48064323     0.02058606
O       4.34632802     0.98215398     0.79869098     0.89990495    -0.37286666    -0.06982373
O       1.51487301     5.67170499     0.93940498     0.19714532    -0.64737213    -0.62519250
O       1.49376498     0.87550101     0.96651198    -0.24400781     0.26177002    -0.70233900
O       4.39355598     8.26327998     3.64754697     0.66373336     0.68806860     1.70704370
O       4.49644402     3.70320901     3.92811898    -0.27273270     0.18347039    -1.59755683
O       1.40409902     8.42249200     3.65758102     0.37083549    -0.03926410     0.88448938
O       1.53710402     3.73786002     3.76687999    -0.11255188     0.55974454     0.10046512
O       3.12361202     1.34557900     3.11757898    -0.77206297     0.44174423     0.35510650
O       0.09489201     6.04359002     3.22808500    -0.67502307    -0.50002524     0.50527081
O       0.03100698     1.40683402     3.25730902    -0.42537375     0.50530501    -0.57091624
O       3.03988099     7.97477699     1.50502302    -0.30462904    -1.34583571    -0.30240684
O       2.95458101     3.32990500     1.42848398     0.33189637    -0.43733478     0.75663506
O       5.89673698     7.91053101     1.48290399    -0.09149557    -0.05060704    -0.83860957
O       0.03499502     3.25815899     1.41769300     0.12922318     0.38013877     0.09291816
