# total energy = -19915.32126332 eV

CRYSTAL
PRIMVEC
        6.44994651     0.00000000     0.00000000
        1.35937889     6.72875219     0.00000000
        0.00000000     0.00000000    11.60271606
PRIMCOORD
24 1
Ti      3.14336195     3.98745232     4.30452505    -0.21260743    -1.70462840     0.71313069
Ti      4.66596313     2.74130003     7.29819147     0.21260743     1.70462840    -0.71313069
Ti      6.11647467     2.74130245     1.49678685     0.16894545    -0.14912970    -0.35362709
Ti      1.69285044     3.98745017    10.10592980    -0.16894545     0.14912970     0.35362709
Ti      2.46367266     0.62307647     1.49683337    -0.21260743    -1.70462840    -0.71313069
Ti      5.34565244     6.10567607    10.10588328     0.21260743     1.70462840     0.71313069
Ti      1.01316104     0.62307387     7.29814495    -0.16894545     0.14912970    -0.35362709
Ti      6.79616406     6.10567868     4.30457158     0.16894545    -0.14912970     0.35362709
O       2.52010909     2.36930806     5.92077737     1.75370075     1.90084375    -0.50088039
O       5.28921599     4.35944429     5.68193915    -1.75370075    -1.90084375     0.50088039
O       1.66222802     2.36933516     0.11945648    -0.92334314     0.41236551     0.73240883
O       6.14709714     4.35941725    11.48325971     0.92334314    -0.41236551    -0.73240883
O       4.60952668     0.99506825     0.11941882    -1.75370075    -1.90084375    -0.50088039
O       3.19979840     5.73368410    11.48329738     1.75370075     1.90084375     0.50088039
O       5.46740783     0.99504121     5.92081504     0.92334314    -0.41236551     0.73240883
O       2.34191720     5.73371121     5.68190148    -0.92334314     0.41236551    -0.73240883
O       1.06119270     4.09280843     3.13418319     0.49525430     1.21471351     1.43388985
O       6.74813238     2.63594392     8.46853334    -0.49525430    -1.21471351    -1.43388985
O       3.99184229     2.63588107     2.66721199     0.60237190     1.44275476     0.63655061
O       3.81748280     4.09287128     8.93550434    -0.60237190    -1.44275476    -0.63655061
O       0.38150340     0.72843239     2.66717491     0.49525430     1.21471351    -1.43388985
O       7.42782170     6.00032002     8.93554141    -0.49525430    -1.21471351     1.43388985
O       3.13779348     0.72849518     8.46857034    -0.60237190    -1.44275476     0.63655061
O       4.67153160     6.00025717     3.13414611     0.60237190     1.44275476    -0.63655061
