# total energy = -19073.83760885 eV

CRYSTAL
PRIMVEC
        5.93400000     0.00000000     0.00000000
        0.00000000     9.29699974     0.00000000
        0.00000000     0.00000000     4.64899994
PRIMCOORD
22 1
Ti      4.40250400     6.90899300     2.37213402     0.33484517     0.48808581    -1.06905995
Ti      4.43184899     2.42590198     2.05412702    -0.51585553    -0.15027718    -0.00838077
Ti      1.56785001     7.19753700     2.60688599    -0.37774353    -0.08943303    -0.56138310
Ti      1.59469501     2.21829801     2.30699400     0.24969380     0.66397658    -0.32718097
Ti      2.99199802     4.59061000     4.45162599     0.59491518    -1.00652273     0.08791093
Ti      2.97262801     0.00418399     4.59946202     0.24739369     0.53457960     0.07201945
Ti      5.84672899     4.60465299     4.38127499     1.29300852    -1.13767372     1.78724132
Ti      5.85638198     9.19905798     0.35198701     0.72414530    -0.34150228     0.53610092
O       4.19836900     5.57701999     0.78772399     1.28929970     0.06139257     1.49473863
O       4.39372902     0.67935902     1.14160398    -0.09782151     1.81235046    -0.20730992
O       1.69020002     0.66881601     1.19052901    -2.17866698     1.36183774    -0.25950822
O       4.44095502     8.36673101     3.87772802     0.79454033     0.05763130    -0.38465749
O       4.56009600     3.88932399     3.42491300    -2.17894697    -1.02671335    -0.34837047
O       1.33585801     8.44464199     3.86624302     0.60097810     0.75977978    -0.03795721
O       1.53997999     3.88229598     3.42498201    -1.04118070    -0.01191193     0.98829231
O       2.97667400     6.18537301     3.34145900    -0.48235893    -0.89976791    -0.06214307
O       3.09012600     1.65597501     3.32506302    -0.33315056    -1.25562518     0.90335743
O       0.06041500     6.07011598     3.41470697     0.25065437     1.54177775    -1.18835712
O       2.95402299     7.94439200     1.49489599     0.13136851    -1.56977399     0.44395846
O       2.84874899     3.08739502     1.11854301     0.43137291     0.61832483     0.12588640
O       0.06438002     7.87470698     1.63042601    -0.64333627    -0.46839475    -0.92569904
O       5.90475201     3.19510900     1.35214101     0.90684565     0.05785936    -1.05949904
