# total energy = -19071.23850759 eV

CRYSTAL
PRIMVEC
        5.17600016     0.00000000     0.00000000
        0.00000000     5.50899976     0.00000000
        0.00000000     0.00000000     9.26300011
PRIMCOORD
22 1
Ti      1.89902702     3.42793498     3.26658100    -1.20492635     0.70909740    -0.08433633
Ti      3.65567302     2.54162701     6.12844602    -0.12290829    -2.12898014    -0.95861226
Ti      4.42530402     2.22853299     1.67084700    -1.38747371     1.64956821    -3.04342803
Ti      0.83666098     2.57880499     7.89999202     1.15574961     0.64131487    -1.94535831
Ti      1.82765699     0.65692000     1.12210798     0.70988159    -2.26655966    -3.78526252
Ti      3.42666400     5.36545001     7.54907601    -1.97412048     1.52464237     1.60306825
Ti      0.97638701     5.31151399     6.49416598    -0.05135266    -1.29589510     0.51710432
Ti      4.32139398     5.16177402     3.60202403    -1.67829747    -1.32788220     2.45176889
O       3.43471199     3.03299899     4.27709698    -0.11235056     1.12616700     1.04879194
O       0.52492198     1.91147798     0.27481101     0.73964803     0.92074864     0.61941343
O       4.65462801     3.96015701     7.54382001     2.60733071    -0.96915841    -1.04549707
O       3.48480100     0.91780698     0.08599400    -0.64682192    -0.04378950     0.42229717
O       1.62000402     5.24800801     8.50028101    -0.73316268    -0.56346004     0.97888130
O       3.75126101     0.42235901     5.14962401    -0.42293814    -0.80281183    -1.58204741
O       0.70895199     5.03781901     4.45440999     3.19986557    -2.10195320     1.94649422
O       0.06667501     3.73878502     2.31147999     0.34046381    -0.55708833     0.40233974
O       4.95181702     1.25811701     6.98737098    -0.22842589     0.66848116     0.68021979
O       2.53983802     2.08244398     1.96233900    -0.30995149     2.06237594     1.76313748
O       2.45807701     3.50084999     7.15504698    -1.89698993     1.30606278    -0.55164839
O       5.00319601     0.83827302     2.41639901     2.08299774    -0.92414686     0.89471055
O       2.25747200     1.19464701     6.67354701    -0.64638175     1.91460430     0.03557457
O       2.50821301     4.88306600     2.42167099     0.58016399     0.45866235    -0.36761158
