# total energy = -19073.55512409 eV

CRYSTAL
PRIMVEC
        5.17600016     0.00000000     0.00000000
        0.00000000     5.50899976     0.00000000
        0.00000000     0.00000000     9.26300011
PRIMCOORD
22 1
Ti      1.82574301     3.35345100     3.24899300    -1.16646211     1.02696583     1.84474072
Ti      3.73467998     2.42690900     5.92909897     1.17325651    -1.52814216    -0.54655066
Ti      4.27412200     2.37484600     1.21131800     0.24072425    -0.86028244    -1.69982969
Ti      0.89092499     3.14343802     8.18768299    -0.62883165     0.52660969     0.25427963
Ti      1.75150700     0.56151998     1.31590099     0.51035620     0.34083816    -3.08965416
Ti      3.22211101     4.91902999     7.80540799     0.49769222     1.92701245     2.74461225
Ti      0.78607100     0.11754498     6.06387100    -0.85715700     2.16584720    -0.35773700
Ti      4.42612800     5.04982499     3.41146201    -0.54193013     0.88714225     1.39382279
O       3.45615198     3.51083202     4.39913298    -0.53564403    -0.32580517     1.10499550
O       0.80478202     2.02275898     0.41736400     0.78467218    -0.03277284    -0.86237326
O       4.40028500     3.66723798     8.90494698    -1.32759192    -0.25092613     1.14753750
O       3.33992698     0.72253401     0.20203098    -0.37278593     1.19842814    -0.10353631
O       1.50911599     4.82866202     8.80299500     0.16676027     0.02792862     0.37008164
O       4.23363300     0.81655701     4.90029400     0.77033005    -0.29494524    -0.59601227
O       0.91617701     4.86127400     4.37538297     0.34540264    -1.00164766     0.78159817
O       0.00811001     3.53887101     2.40615499     0.33088876    -0.51362587     0.46833279
O       0.28614900     1.96883402     6.84828197    -1.47532628    -0.86432601    -1.24132187
O       2.61296100     2.04359300     2.35415702     0.58148965    -1.61754793    -1.03596315
O       2.63814597     3.27868699     7.18431800    -1.27753407    -0.39569267    -0.87753455
O       4.98118303     0.70073302     2.06176601     0.83751994    -0.42227300     1.18722249
O       2.50590998     0.75323503     6.60183900     0.17741493    -0.83997200    -0.08402754
O       2.46475898     4.76546201     2.42918901     1.76675579     0.84718652    -0.80268328
