# total energy = -19075.14144086 eV

CRYSTAL
PRIMVEC
        7.60600008     0.00000000     0.00000000
        0.00000000     7.60600008     0.00000000
       -1.89786986    -1.89786986     4.85670466
PRIMCOORD
22 1
Ti      3.71358300     6.66788100     1.19417297    -1.01174721    -0.29538490     1.24162449
Ti      3.70610398     2.76440401     1.26863901     1.74900874     1.05836981    -1.66373808
Ti     -0.18467302     6.61686102     1.22310902     0.30650055     0.47397636     1.81974753
Ti      0.00850002     3.04154203     1.32559399    -0.31855851    -0.64706849    -0.31696957
Ti      5.63806022     3.04520822     3.51600282     0.83569240    -0.13176446    -0.14477836
Ti      5.61833921    -1.03943678     3.80253283     1.32272020     0.16957666    -1.39424343
Ti      2.03198423     2.98231222     3.71240982    -1.43797251    -1.32048925     0.41640677
Ti      1.81807623    -0.90272278     3.68961381    -0.28854190     1.30961039    -0.72330687
O       3.76504099     4.84391498     0.77844900     0.23549257    -1.22802772    -0.10679569
O       3.96755998     0.98598300     0.88143102    -0.47893499     0.55707856    -0.61942500
O       0.15630102     4.81087400     0.62288798    -0.55228988    -0.31876986     0.24756082
O       0.06588098     0.94000501     0.82552799    -0.43556072     0.67629037    -0.11564981
O       5.19577223     4.82344624     3.68476480    -0.28110627     0.37948005     2.13900616
O       0.00676024    -0.98178075     3.32413580    -2.29788651     0.27999170    -0.88312901
O       1.82105624     4.83978422     4.19054581     0.72865116     0.11903081    -1.93869632
O       1.82864321     1.06687224     3.99295779    -0.03051309    -0.99536851     0.56431107
O       3.81737721     2.64148424     3.24565379    -0.74694997     0.01872021     0.00402095
O      -0.11688779     3.22719524     3.16610284     1.80386299    -0.58173262     0.75620620
O       5.48688502     6.56644402     1.75470900     1.93034563     0.62496316     0.10191780
O       5.70200102     2.96808900     1.58986801    -0.39560242    -0.23685885    -0.58907106
O       1.83928402     6.59758298     1.67938898     0.79401763     0.34446393     0.54568265
O       1.96085101     3.00544801     1.59026500    -1.43062789    -0.25608763     0.65931954
