# total energy = -39040.49539871 eV

CRYSTAL
PRIMVEC
        7.60629642    -0.00000847    -0.00005503
       -0.00000847     7.60629642    -0.00005503
       -3.80314186    -3.80314186     9.70738094
PRIMCOORD
46 1
Ti      1.90145519     4.75416501     6.09187216    -0.00013781     0.00004679     0.32243420
Ti      3.78907956     6.65562785     1.22985772    -0.03696554    -0.00008665    -0.02549738
Ti      1.90147988     0.95101680     6.09188222    -0.00028719     0.00004679     0.32239589
Ti      3.78908379     2.85248779     1.22988522    -0.03696554    -0.00009513    -0.02549713
Ti     -1.90158675     4.75394386     5.92025546    -0.00048003    -0.00052502     0.15524044
Ti      0.01374758     6.65564967     1.22986474     0.03749364    -0.00002263    -0.02597741
Ti     -1.90160528     0.95079565     5.92035047    -0.00035301    -0.00052631     0.15502575
Ti      0.01375173     2.85250207     1.22989241     0.03749364     0.00022549    -0.02597818
Ti      3.72163437     0.95071963     8.53242536     0.10486402     0.00021417    -0.14833728
Ti      5.70489073     2.85226630     3.60700352     0.00003034     0.00039364    -0.10682603
Ti      3.72164104    -2.85242858     8.53246614     0.10506586     0.00021520    -0.14852754
Ti      5.70489509    -0.95083586     3.60703090     0.00003060    -0.00004242    -0.10682526
Ti      0.08143540     0.95070998     8.53253635    -0.10367103     0.00029131    -0.14938963
Ti      1.90174169     2.85221701     3.65062434    -0.00009359    -0.00002880     0.08744556
Ti      0.08146200    -2.85243823     8.53259207    -0.10384150     0.00029105    -0.14963363
Ti      1.90174598    -0.95094292     3.65065185    -0.00009385     0.00012110     0.08744556
O       1.90158135     2.85233786     5.70844499     0.00001106    -0.00009642     0.00179232
O       3.77374454     4.75393053     0.78897516     0.03306774     0.00003060     0.06615631
O       1.90158559    -0.95081744     5.70847245     0.00001080     0.00002005     0.00179232
O       3.77375999     0.95078232     0.78900318     0.03303277     0.00003008     0.06606941
O      -1.90150065     2.85233942     5.60787445     0.00010799    -0.00020209    -0.20578372
O       0.02943300     4.75393468     0.78900312    -0.03340764     0.00006968     0.06603135
O      -1.90149639    -0.95079176     5.60790191     0.00010799    -0.00022729    -0.20578372
O       0.02944261     0.95078653     0.78905364    -0.03340378     0.00006891     0.06533921
O       3.97668290     2.85230742     8.86005701     0.13895429     0.00094128     0.15599454
O       5.70466818     4.75391788     3.99940185     0.00006736     0.00008022    -0.16721587
O       3.97668704    -0.95077978     8.86008459     0.13895455    -0.00067851     0.15599403
O       5.70466497     0.95076964     3.99946002     0.00003780     0.00007945    -0.16730946
O      -0.17346131     2.85233615     8.86004108    -0.13944486     0.00024425     0.15656918
O       1.90153818     4.75392018     4.09928085     0.00014552    -0.00012418     0.06273751
O      -0.17345701    -0.95080648     8.86006865    -0.13944486     0.00002108     0.15656867
O       1.90153834     0.95077195     4.09931555     0.00019798    -0.00012316     0.06282596
O       1.90155350     0.95083010     8.09947215    -0.00037692    -0.00003702     0.13209613
O       3.80404816     2.85239891     3.21820833    -0.04130222    -0.00007379    -0.04451250
O       1.90156489    -2.85231825     8.09951264    -0.00007713    -0.00003677     0.13221003
O       3.80405239    -0.95073590     3.21823577    -0.04130119    -0.00008613    -0.04451224
O      -0.00087177     2.85240616     3.21824506     0.04135955    -0.00005219    -0.04456443
O      -0.00086739    -0.95072081     3.21827253     0.04135724    -0.00010207    -0.04456469
O       3.91176778     4.75384982     6.55787375    -0.10293750    -0.00007302    -0.11978800
O       5.70471642     6.65549547     1.59172874     0.00000566    -0.00002725    -0.09881216
O       3.91171119     0.95070149     6.55791570    -0.10265802    -0.00007251    -0.12032279
O       5.70472056     2.85231217     1.59175636     0.00000591     0.00007328    -0.09881293
O      -0.10857831     4.75386719     6.55790524     0.10248781    -0.00009590    -0.12022560
O       1.90156800     6.65547990     1.66474920    -0.00010824    -0.00006119     0.05140383
O      -0.10857452     0.95071891     6.55793767     0.10257034    -0.00009590    -0.12027471
O       1.90157224     2.85229680     1.66477677    -0.00010901     0.00008767     0.05140408
