# total energy = -4983.15067051 eV

CRYSTAL
PRIMVEC
        2.94975348     0.00000000     0.00000000
        1.97960240     4.17641100     0.00000000
       -0.00001293    -0.00006210     4.74953966
PRIMCOORD
6 1
Ti      2.46467137     2.08817447     2.37476973     0.00000000     0.00000000     0.00000000
Ti      0.00000000     0.00000000     0.00000000     0.00000000     0.00000000     0.00000000
O       1.86066950     0.81390894     0.92561530    -5.62609234     2.58163279     3.21981734
O       3.06867319     3.36244001     3.82392416     5.62609234    -2.58163279    -3.21981734
O       0.60399646     1.27424046     3.30038601     5.62612551    -2.58292554     3.22055139
O       1.37559288     2.90210835     1.44915345    -5.62612551     2.58292554    -3.22055139
