# total energy = -19929.59187619 eV

CRYSTAL
PRIMVEC
        6.15914548     0.00000000     0.00000000
        0.00003376     6.55519334     0.00000000
        0.00000000     0.00000000    11.02351609
PRIMCOORD
24 1
Ti      2.23241400     3.88460151     4.08964593     0.03523390    -0.86447899     0.62336111
Ti      3.92676523     2.67059190     6.93387048    -0.03523390     0.86447899    -0.62336111
Ti      5.31187892     2.67059415     1.42206823     0.03556171     0.86432370    -0.62348838
Ti      0.84730032     3.88459951     9.60144831    -0.03556171    -0.86432370     0.62348838
Ti      2.23239725     0.60700497     1.42211244     0.03523390    -0.86447899    -0.62336111
Ti      3.92678199     5.94818863     9.60140410    -0.03523390     0.86447899     0.62336111
Ti      0.84728357     0.60700252     6.93382628    -0.03556171    -0.86432370    -0.62348838
Ti      5.31189567     5.94819107     4.08969013     0.03556171     0.86432370     0.62348838
O       1.94942032     2.30819507     5.62521600     1.37746826     1.26832283     0.02448257
O       4.20975892     4.24699840     5.39830041    -1.37746826    -1.26832283    -0.02448257
O       1.13021221     2.30822148     0.11349328    -1.37709416     1.26886842     0.02367524
O       5.02896709     4.24697199    10.91002281     1.37709416    -1.26886842    -0.02367524
O       4.20974217     0.96940166     0.11345751    -1.37746826    -1.26832283     0.02448257
O       1.94943707     5.58579175    10.91005858     1.37746826     1.26832283    -0.02448257
O       5.02895034     0.96937526     5.62525177     1.37709416    -1.26886842     0.02367524
O       1.13022883     5.58581821     5.39826464    -1.37709416     1.26886842    -0.02367524
O       0.22379651     3.98724020     2.97772678     0.48665524    -0.28249955     0.32531075
O       5.93538273     2.56795321     8.04578963    -0.48665524     0.28249955    -0.32531075
O       3.30337419     2.56789211     2.53406647     0.48666373     0.28279677    -0.32560488
O       2.85580505     3.98730129     8.48944975    -0.48666373    -0.28279677     0.32560488
O       0.22377976     0.70964347     2.53403127     0.48665524    -0.28249955    -0.32531075
O       5.93539948     5.84554994     8.48948495    -0.48665524     0.28249955     0.32531075
O       2.85578830     0.70970456     8.04582477    -0.48666373    -0.28279677    -0.32560488
O       3.30339094     5.84548885     2.97769158     0.48666373     0.28279677     0.32560488
