# total energy = -19957.71588945 eV

CRYSTAL
PRIMVEC
        5.93400000     0.00000000     0.00000000
        0.00000000     9.29699974     0.00000000
        0.00000000     0.00000000     4.64899994
PRIMCOORD
24 1
Ti      4.45077898     6.63578598     2.27817199     1.25569048     4.33080222     1.97733924
Ti      4.49734499     2.50940001     2.30478801    -0.64284416    -3.56307336     1.39212227
Ti      1.51052201     6.75170602     2.00385602    -0.84040138     3.88112846     1.66173570
Ti      1.50177302     2.44441101     2.28405898     0.46927381    -3.79421537     1.78005971
Ti      2.91157900     4.66295102     4.57835298     0.49769711    -2.37048035    -0.75058834
Ti      2.96472602     9.26223402     0.22245299    -0.10251301    -0.89757373    -2.45236410
Ti      5.91407399     4.65954502     0.04998899    -0.56016363    -1.75708818    -1.71799351
Ti      5.88589398     0.00406398     0.23191802     0.54920918    -1.22591118    -2.55151873
O       4.42239402     5.66683100     0.76508801     0.56018188    -1.17647965    -0.98634856
O       4.51765699     0.88061699     1.03093698    -1.53325634     1.89229278     0.34665580
O       1.45797402     5.68887801     0.51066499    -0.16610104     1.03072633     1.63508081
O       1.43072801     0.92117699     1.06740899     0.88279837     0.82582604     0.19398132
O       4.42769902     8.31318700     3.93559202    -0.21223513     0.52165311    -0.32891775
O       4.38818901     3.89360302     3.64892400     1.02682416     0.92814879     1.24771595
O       1.44781398     8.34933097     4.03509999     0.93855225     0.52928055    -0.65546751
O       1.52439201     3.81093802     3.66401698    -0.62338682     0.18603352     1.71677327
O       2.91883201     5.92545702     3.05860699    -0.44236849     0.51137384    -0.31876189
O       3.12161602     1.65402901     3.14597902    -1.26861671    -1.08081452     1.18185660
O       0.17449800     5.92368200     3.06572902    -0.97058718    -0.01069965    -0.59849236
O       5.84206001     1.60434398     3.29327598     0.41050942     0.50092719    -0.20498796
O       3.11866998     7.85722698     1.40532798    -1.01810941    -1.68094313     2.03445169
O       2.83602398     3.39876101     1.53499800     1.59259588     2.26758167    -3.21684308
O       5.83828999     7.95148202     1.55284000     0.95783501    -2.27192504     1.06889617
O       0.09172600     3.31018701     1.43135202    -0.76058376     2.42343018    -2.45438499
