# total energy = -19960.01084499 eV

CRYSTAL
PRIMVEC
        7.60600008     0.00000000     0.00000000
        0.00000000     7.60600008     0.00000000
       -1.89786986    -1.89786986     4.85670466
PRIMCOORD
24 1
Ti      3.75894201     6.50901099     1.27786802    -0.50347489     0.92151560    -0.86132888
Ti      3.77795699     2.81851800     1.26754599    -0.99585213    -0.95025360    -0.70256911
Ti      0.04959502     6.74965101     1.14404200    -0.25002728    -0.46845800     1.66006371
Ti     -0.03985202     2.92881002     1.16490699     1.20563571     0.69336713     0.00863582
Ti      5.73375023     2.99131321     3.57107382     0.88579242    -0.50497642     1.93907864
Ti      5.71513425    -0.94049678     3.56972781     2.05665344     0.31081898     0.89594185
Ti      1.89516423     2.75691420     3.62422582    -1.33686744     0.11200038    -0.29275080
Ti      1.92229822    -1.09374476     3.63560080    -1.90322254     0.18350330     0.87147754
O       3.50020201     4.66916800     0.82541602     1.44428894     0.27671431    -0.66611677
O       3.64873799     0.88770299     1.05022798     0.92379359    -0.32731441    -0.78166322
O       0.10342399     4.92866102     0.71847200    -0.71192819    -1.83226161     0.59527977
O       0.09095102     1.02615602     0.64360299    -0.68223862     0.49783363     1.17915797
O      -1.48562280     4.78145724     4.16843080    -0.93689466     1.09625683    -2.59297958
O       5.72912421     1.10365223     4.14238184    -0.54407700    -0.75103108    -1.81776547
O       1.58041220     4.59874520     4.12659479     1.40290162     1.15877117     0.52625796
O       1.88031721     0.76168625     4.02559083     0.74560117     1.47203501     0.86143661
O       3.75250420     3.00409723     3.21453779     0.32210355    -0.33289216     0.51051715
O       3.83022023    -1.22863977     3.22081082     0.02096324    -0.10990030     0.46701767
O      -0.00157076     2.82228622     3.14577079     0.29750246    -0.71744295     0.14133308
O       0.03693424    -0.95221980     3.13016281    -0.66031713     0.34278577     1.50100261
O       5.81007098     6.62958699     1.69381700    -2.28270234     0.17926252    -1.65042464
O       5.72067701     3.14897199     1.69803301    -0.92170509    -0.38949425    -1.63856697
O       1.82957700     6.62519101     1.78726600     2.57570125    -0.01072742    -0.97822618
O       1.88131598     2.98504801     1.59164298    -0.15163035    -0.85011192     0.82519098
