# total energy = -19933.60226644 eV

CRYSTAL
PRIMVEC
        6.63272659     0.00000000     0.00000000
        0.00003084     5.77573128     0.00000000
        0.00000000     0.00000000    10.90093888
PRIMCOORD
24 1
Ti      2.40406264     3.42269289     4.04417071     0.32012535    -0.71935431     0.72600035
Ti      4.22869486     2.35303814     6.85676860    -0.32012535     0.71935431    -0.72600035
Ti      5.72031101     2.35304001     1.40625539     0.31991349     0.72000274    -0.72609651
Ti      0.91244648     3.42269121     9.49468405    -0.31991349    -0.72000274     0.72609651
Ti      2.40404746     0.53482737     1.40629910     0.32012535    -0.71935431    -0.72600035
Ti      4.22871003     5.24090384     9.49464034    -0.32012535     0.71935431     0.72600035
Ti      0.91243131     0.53482526     6.85672489    -0.31991349    -0.72000274    -0.72609651
Ti      5.72032619     5.24090590     4.04421442     0.31991349     0.72000274     0.72609651
O       2.09931072     2.03373308     5.56266584     0.96560489     1.25775251    -0.69060474
O       4.53344677     3.74199795     5.33827348    -0.96560489    -1.25775251     0.69060474
O       1.21711305     2.03375642     0.11223129    -0.96547479     1.25782527    -0.69116806
O       5.41564450     3.74197467    10.78870771     0.96547479    -1.25782527     0.69116806
O       4.53343160     0.85413225     0.11219590    -0.96560489    -1.25775251    -0.69060474
O       2.09932590     4.92159878    10.78874310     0.96560489     1.25775251     0.69060474
O       5.41562926     0.85410897     5.56270122     0.96547479    -1.25782527    -0.69116806
O       1.21712811     4.92162212     5.33823809    -0.96547479     1.25782527     0.69116806
O       0.24100094     3.51312720     2.94461565    -0.72949474     0.04530903     0.06764292
O       6.39175655     2.26260383     7.95632366     0.72949474    -0.04530903    -0.06764292
O       3.55737087     2.26255016     2.50588868    -0.72951171    -0.04516453    -0.06770206
O       3.07538662     3.51318088     8.39505045     0.72951171     0.04516453     0.06770206
O       0.24098570     0.62526150     2.50585385    -0.72949474     0.04530903    -0.06764292
O       6.39177179     5.15046953     8.39508528     0.72949474    -0.04530903     0.06764292
O       3.07537139     0.62531518     7.95635843     0.72951171     0.04516453    -0.06770206
O       3.55738611     5.15041586     2.94458082    -0.72951171    -0.04516453     0.06770206
