# total energy = -4988.09178276 eV

CRYSTAL
PRIMVEC
        3.89785588     0.00000000     0.00000000
        1.49916841     3.59802370     0.00000000
       -2.69854833    -1.79903597     5.08117864
PRIMCOORD
6 1
Ti      1.12427094     2.69865629     1.27029440     0.00039518    -0.00039518     0.00000000
Ti      1.57420513    -0.89966853     3.81088356    -0.00039518     0.00039518     0.00000000
O       0.37483263     0.89950121     0.82768236    -0.00040958    -0.00044429    -1.73019212
O       2.32364327     0.89948647     4.25349565     0.00040958     0.00044429     1.73019212
O      -0.37479896    -0.89947877     3.36827157    -0.00044429    -0.00040958    -1.73019212
O       3.07327479     2.69846641     1.71290649     0.00044429     0.00040958     1.73019212
