# total energy = -19896.15485362 eV

CRYSTAL
PRIMVEC
        6.73882996     0.00000000     0.00000000
        0.00002207     3.07377974     0.00000000
        0.00000000     0.00000000    10.25597250
PRIMCOORD
24 1
Ti      2.44251471     1.82151904     3.80489265    -1.27684116     0.99011780    -1.77438888
Ti      4.29633702     1.25226075     6.45108000     1.27684116    -0.99011780     1.77438888
Ti      5.81181435     1.25226179     1.32305265    -1.27536920    -0.98982675     1.77875025
Ti      0.92703738     1.82151809     8.93292009     1.27536920     0.98982675    -1.77875025
Ti      2.44250382     0.28462922     1.32309380    -1.27700622     0.98956270     1.77599197
Ti      4.29634791     2.78915062     8.93287895     1.27700622    -0.98956270    -1.77599197
Ti      0.92702650     0.28462807     6.45103885     1.27468991     0.99020161     1.77711811
Ti      5.81182523     2.78915176     3.80493379    -1.27468991    -0.99020161    -1.77711811
O       2.13288992     1.08233009     5.23354430     7.65590499    -2.08397759     4.85821513
O       4.60596181     1.99144965     5.02242834    -7.65590499     2.08397759    -4.85821513
O       1.23657984     1.08234249     0.10559098    -7.65602969    -2.08389480     4.85696223
O       5.50227194     1.99143730    10.15038137     7.65602969     2.08389480    -4.85696223
O       4.60595097     0.45455978     0.10555771    -7.65571139     2.08349962     4.85645340
O       2.13290076     2.61922001    10.15041464     7.65571139    -2.08349962    -4.85645340
O       5.50226110     0.45454738     5.23357757     7.65538254     2.08487824     4.85926928
O       1.23659058     2.61923240     5.02239508    -7.65538254    -2.08487824    -4.85926928
O       0.24485060     1.86964707     2.77039406     3.42377043    -1.38039443     0.98881605
O       6.49400113     1.20413267     7.48557859    -3.42377043     1.38039443    -0.98881605
O       3.61427415     1.20410403     2.35762487     3.42418283     1.38032193    -0.99605036
O       3.12457758     1.86967575     7.89834763    -3.42418283    -1.38032193     0.99605036
O       0.24483976     0.33275720     2.35759214     3.42289985    -1.37948298    -0.99602491
O       6.49401197     2.74102259     7.89838036    -3.42289985     1.37948298     0.99602491
O       3.12456674     0.33278584     7.48561126    -3.42497165    -1.38040472    -0.98965680
O       3.61428499     2.74099395     2.77036133     3.42497165     1.38040472     0.98965680
