# total energy = -19517.70684946 eV

CRYSTAL
PRIMVEC
        5.93400000     0.00000000     0.00000000
        0.00000000     9.29699974     0.00000000
        0.00000000     0.00000000     4.64899994
PRIMCOORD
23 1
Ti      4.40960598     6.98869799     2.27917298     0.73135802     0.45760845    -0.97513880
Ti      4.49317201     2.37460798     2.34002598    -0.17441728    -0.78572530    -0.01491086
Ti      1.43612398     6.97043799     2.31308599    -0.66785072     0.42146387    -0.44555872
Ti      1.43981197     2.27812399     2.28290098     0.14784080    -0.22707477     0.26439923
Ti      2.96164102     4.49720900     0.03108302     0.05912640     0.57120703     1.06043518
Ti      2.94776801     0.08562601     0.02831400    -0.15172780    -0.01605397    -0.34979229
Ti      0.01171101     4.66920600     4.59057798    -0.15798921     0.56804072     0.93176865
Ti      5.89981002     9.28940102     4.59107398     0.34562864    -0.30516820     0.00854944
O       4.33343001     5.59309201     0.95403303     0.16040296    -0.18347090    -0.18116977
O       4.60021298     0.96310302     0.85707802    -1.09454910    -0.32158445     0.83023034
O       1.48729002     5.58698599     1.02596298     0.52769624    -0.85359165    -0.89622287
O       1.41750699     0.95819299     0.84283098     1.22241988     0.42495029     1.32656168
O       4.61855199     8.33234999     3.67005198    -1.40634767    -0.10715565     0.48749625
O       4.44947700     3.69775902     3.84508498     0.03760883     0.50562999    -0.74687386
O       1.60864402     8.53101800     3.67633797    -0.20286320    -1.01808601     0.08420777
O       1.45829698     3.71365799     3.82442198     0.33780734    -0.06053639    -0.60264804
O       3.05570302     1.47335202     3.32836499    -0.58097054    -0.07792271    -0.70688291
O       0.08831201     5.96763700     3.29386702    -0.48442301     0.63548361    -0.11801856
O       5.86620800     1.41717499     3.31131399     1.02374450     0.70049526    -1.36634618
O       2.90536001     7.89252898     1.43271798     1.04844612    -0.26847186     0.46073877
O       3.04678501     3.21696899     1.34465701    -0.98856022    -0.66689607     1.23012702
O       0.02044900     7.75061401     1.43904303    -0.22673462     0.93583022    -0.51380867
O       0.00983000     3.32063000     1.50822200     0.49435467    -0.32897226     0.23285693
