# total energy = -19961.15295137 eV

CRYSTAL
PRIMVEC
        7.60600008     0.00000000     0.00000000
        0.00000000     7.60600008     0.00000000
       -1.89786986    -1.89786986     4.85670466
PRIMCOORD
24 1
Ti      3.82342798     6.55270801     1.19571902    -0.51969470     0.03208789     1.65558716
Ti      3.79074498     2.75843802     1.12528500    -1.18368466     0.80738866     1.05405061
Ti      0.05453002     6.75776102     1.28409501     0.08895018    -0.51428047    -0.72313280
Ti     -0.07471702     2.92819300     1.23879299     1.99648549     0.27523155    -0.89582332
Ti      5.64740925     2.94203924     3.62093783     1.27565408    -1.02869079     0.94415623
Ti      5.70197425    -0.93980075     3.64387983    -0.44285674     1.22790045     0.48944566
Ti      1.94884323     2.78471024     3.66361380    -0.76881130    -0.18194418    -1.51509612
Ti      1.85727424    -1.09098378     3.72985282     0.46666902     0.83268164    -1.52779712
O       3.69836498     4.70703000     0.82537400     1.07343597     0.90702640    -0.99738631
O       3.73711398     0.93203100     0.81536398     0.33335548    -1.83741256    -0.10943853
O       0.07832300     4.81289598     0.72787600    -0.69212194    -0.16054694    -0.15241634
O      -0.06357303     0.98464101     0.81648102     0.19498174     0.68614053     0.13483718
O       5.71040722     4.84595824     4.08422081    -0.17033282    -1.04790670    -0.11349214
O       5.82211823     0.99341424     3.86520880    -0.41831041     0.24654677     1.20248611
O       1.87056522     4.65902023     3.93259380     0.55549553     0.23795440     1.58070041
O       1.83702025     0.82038921     4.07225680     0.35110561     1.81645960    -0.36439873
O       3.84430423     2.74431121     3.17298383    -0.95054105     0.11077448     0.48647707
O       3.75211722    -0.95572978     3.22539381    -0.04624362    -0.21144220    -0.38245996
O       0.06413925     2.97379025     3.12544181     0.05534276    -0.50041322     0.58197739
O       0.01634020    -0.95909275     3.22231580     0.51150239    -0.25486250     0.40090121
O       5.72413201     6.64919300     1.76542199    -1.04364458    -0.25517000    -1.97357978
O       5.76432001     2.93432399     1.63217499    -1.71402733     0.20764597    -0.66767460
O       1.89354601     6.65534199     1.59532097     0.65108198     0.06336409     0.17153198
O       1.95402197     3.07454602     1.56478798     0.39620869    -1.45853286     0.72054550
