# total energy = -19070.60212039 eV

CRYSTAL
PRIMVEC
        5.93400000     0.00000000     0.00000000
        0.00000000     9.29699974     0.00000000
        0.00000000     0.00000000     4.64899994
PRIMCOORD
22 1
Ti      4.42419201     6.78007097     2.66176199    -0.21066059    -0.60928354    -0.30796762
Ti      4.33444000     2.36034300     2.16814598     2.19872545     0.75852842     2.70051807
Ti      1.53518300     7.37039000     2.57793201     0.31717063     0.53407669     1.73128432
Ti      1.63682699     2.30301199     1.89316098    -1.73739455     0.51982969     1.88211378
Ti      2.93627999     4.65357701     4.37948902     2.03576733     0.99488360     1.64023561
Ti      3.02926601     0.02431400     0.25505603    -0.03923376    -0.42720977    -0.68908007
Ti      5.90681701     4.25829600     4.03579099     2.29520767     1.49827673    -0.10750583
Ti      5.87574097     9.07408901     0.33801498     0.11177387     2.35948142    -1.69896992
O       4.00868103     5.48118298     0.95568602    -0.03896457     0.05592434     1.36578979
O       4.34330901     0.77928901     1.34758199     2.85402893    -1.82398291    -2.14907049
O       1.32783902     0.58146499     1.36005300     1.52793647     2.25541778     0.23546454
O       4.53125398     8.32867301     4.07575398    -1.94152813     0.57564939    -1.34783011
O       4.33836401     4.16557901     3.26360602    -2.39542983    -1.19948255    -1.65972407
O       1.52434301     8.69344298     3.89170301    -1.11989299    -0.07647261    -0.58173210
O       1.62101200     4.05732998     3.17412601    -0.66341942    -0.60310415    -0.52020995
O       2.78876099     6.50638098     3.69969602    -0.03756512    -2.01010617    -0.53750063
O       3.06922498     1.50299399     3.16235102    -0.86667215     0.74815916     1.61573093
O       5.92659898     6.30811398     3.75161503     0.73534015    -0.92465414    -1.65035059
O       3.10857598     7.94263900     1.81062600    -0.49382888     0.23927492    -1.77552968
O       3.14516102     2.81027802     0.95413500    -1.70867378     3.10011701    -2.91451801
O       0.02749700     7.91057699     1.54685300    -1.08613182    -4.34446996     2.94423509
O       0.25546497     3.42610402     0.89424002     0.26344484    -1.62085309     1.82461720
