# total energy = -4979.64127663 eV

CRYSTAL
PRIMVEC
        2.58112703     0.00000000     0.00000000
        0.00000000     4.04423909     0.00000000
        0.00000000    -0.00005248     4.04423909
PRIMCOORD
6 1
Ti      1.29056347     2.02209325     2.02211950     0.00000000     0.00000000     0.00000000
Ti      0.00000000     0.00000000     0.00000000     0.00000000     0.00000000     0.00000000
O       1.29056347     0.78815239     0.78816262     0.00000000     2.58443606     2.58443606
O       1.29056347     3.25603412     3.25607637     0.00000000    -2.58443606    -2.58443606
O       0.00000000     1.23391959     2.81028294     0.00000000    -2.58802661     2.58802661
O       0.00000000     2.81026692     1.23395606     0.00000000     2.58802661    -2.58802661
