# total energy = -4989.46774904 eV

CRYSTAL
PRIMVEC
        3.32876366     0.00000000     0.00000000
        0.00000000     4.26736936     0.00000000
        0.00000000    -0.00006266     4.78941574
PRIMCOORD
6 1
Ti      1.66438183     2.13365329     2.39470798     0.00000000     0.00000000     0.00000000
Ti      0.00000000     0.00000000     0.00000000     0.00000000     0.00000000     0.00000000
O       1.66438183     0.83163521     0.93338665     0.00000000     0.08476159    -0.00691164
O       1.66438183     3.43567137     3.85602931     0.00000000    -0.08476159     0.00691164
O       0.00000000     1.30199273     3.32809548     0.00000000    -0.08494722    -0.00690239
O       0.00000000     2.96531386     1.46132047     0.00000000     0.08494722     0.00690239
