# total energy = -19072.41889360 eV

CRYSTAL
PRIMVEC
        5.17600016     0.00000000     0.00000000
        0.00000000     5.50899976     0.00000000
        0.00000000     0.00000000     9.26300011
PRIMCOORD
22 1
Ti      1.64254899     3.34106799     3.33315002     1.16158370     1.52481978    -0.89164759
Ti      3.97910102     2.26474200     5.89311101    -1.84944764    -0.33268699    -0.86680379
Ti      4.21735699     2.00522400     1.41974801     2.66415237     1.18052811     0.13130012
Ti      0.95020999     3.33798903     8.26062801    -0.58977066    -0.48149350     2.75699083
Ti      1.70606603     0.67342499     1.39357601    -1.01487959    -2.95116832    -1.89737893
Ti      3.39173602     5.40216898     7.74433702    -0.79942183     0.71216550     2.58626900
Ti      1.10937602     5.41745802     6.08504402     0.33008503     1.18572714    -1.31151790
Ti      4.24009500     4.99015401     3.51725502    -0.84435213    -0.46849605     0.15548906
O       3.24082700     3.54805700     4.34261399     0.79003139     0.16909020     2.36916137
O       0.99539902     1.85572000     0.20208999    -1.46467908     1.81976990    -1.14956996
O       4.35527800     3.81877598     7.85065598     0.95522611    -1.69240434    -0.59424438
O       3.49539698     0.85952001     0.29420101    -0.26638258    -0.62057814    -2.98085969
O       1.72113498     4.71082002     9.16887699    -0.48365014    -0.28905227    -0.54383866
O       4.00475400     1.17323698     4.50318002     0.45761205    -1.10722645     0.32001145
O       0.85198400     4.85879999     4.27450602     0.12939673     0.14611765     2.02913054
O       5.15608299     3.47634999     2.47084500    -0.29462796    -0.55173606    -0.81336930
O       5.00471199     0.82479101     6.98899301    -0.84747345     0.47625024     0.57729875
O       2.59042202     1.93134900     2.30785502    -0.06121516     2.11459198     1.86165884
O       1.85760800     3.89332801     6.81588098     1.70212003    -0.01282724    -1.59427430
O       5.12244499     0.63947499     2.24611702     1.06745712    -0.14985423    -0.18068486
O       2.48144601     1.13799398     6.66115802    -0.44106006     0.30217441    -0.83548671
O       2.65883400     4.82087201     2.34538501    -0.30070400    -0.97371132     0.87236663
