# total energy = -19900.14374387 eV

CRYSTAL
PRIMVEC
        6.77758954     0.00000000     0.00000000
        2.11643622     6.89593397     0.00000000
        0.00000000     0.00000000    12.27230646
PRIMCOORD
24 1
Ti      3.71074833     4.08652412     4.55293817    -0.36240124    -1.79851124     0.54211345
Ti      5.18327731     2.80941001     7.71936836     0.36240124     1.79851124    -0.54211345
Ti      6.70747192     2.80941238     1.58316606     0.25804295    -0.62601346    -0.17926201
Ti      2.18655383     4.08652201    10.68914060    -0.25804295     0.62601346     0.17926201
Ti      2.65253038     0.63855725     1.58321527    -0.36240124    -1.79851124    -0.54211345
Ti      6.24149529     6.25737708    10.68909140     0.36240124     1.79851124     0.54211345
Ti      1.12833574     0.63855467     7.71931916    -0.25804295     0.62601346    -0.17926201
Ti      7.76568994     6.25737966     4.55298737     0.25804295    -0.62601346     0.17926201
O       2.89038302     2.42817563     6.26246405     1.76187866     1.95382855    -0.62547173
O       6.00364264     4.46775857     6.00984248    -1.76187866    -1.95382855     0.62547173
O       1.98892622     2.42820345     0.12635030    -0.63309891    -0.11064027     1.10507957
O       6.90509952     4.46773080    12.14595589     0.63309891     0.11064027    -1.10507957
O       4.94542465     1.01979149     0.12631048    -1.76187866    -1.95382855    -0.62547173
O       3.94860100     5.87614270    12.14599571     1.76187866     1.95382855     0.62547173
O       5.84688153     1.01976373     6.26250387     0.63309891     0.11064027     1.10507957
O       3.04714407     5.87617054     6.00980266    -0.63309891    -0.11064027    -1.10507957
O       1.53358199     4.19449801     3.31505614     0.54972391     1.94588179     1.98189010
O       7.36044366     2.70143619     8.95725039    -0.54972391    -1.94588179    -1.98189010
O       4.46413370     2.70137189     2.82113615     0.53913791     1.82969128     1.15207550
O       4.42989195     4.19456231     9.45117018    -0.53913791    -1.82969128    -1.15207550
O       0.47536394     0.74653094     2.82109695     0.54972391     1.94588179    -1.98189010
O       8.41866164     6.14940326     9.45120937    -0.54972391    -1.94588179     1.98189010
O       3.37167396     0.74659523     8.95728952    -0.53913791    -1.82969128     1.15207550
O       5.52235169     6.14933896     3.31501695     0.53913791     1.82969128    -1.15207550
