# total energy = -19073.25198342 eV

CRYSTAL
PRIMVEC
        7.60600008     0.00000000     0.00000000
        0.00000000     7.60600008     0.00000000
       -1.89786986    -1.89786986     4.85670466
PRIMCOORD
22 1
Ti      4.03431601     6.62163298     1.25003001    -0.31115939    -0.12729768    -0.81977289
Ti      3.54201898     2.68049402     1.14398199     1.37042678     1.13274208     0.63320586
Ti      0.01414898     6.80553398     1.00338299     0.57825469    -0.86290291     1.03633854
Ti     -0.15717702     2.93520698     1.07428300    -1.60364572    -0.12307773    -0.38904893
Ti      5.56558421     2.93176024     3.49272881    -0.46699118    -0.68621843     0.07586377
Ti     -1.08794980    -0.76520676     3.85986781    -4.12336786    -0.20018745    -0.86927899
Ti      1.79275621     2.73580521     3.73400380     0.90752982     0.11874593     1.03453902
Ti      1.63995120    -1.03324176     3.84015379     1.42034168     1.44518934    -1.95465079
O       3.78957402     4.65733798     0.86913601    -0.15153085     1.12285002    -0.64960360
O       4.09438202     0.86392800     0.94162498    -1.25855546    -0.44881553     0.29938759
O      -0.25029999     4.83871200     0.64506903     0.57123506    -1.23599942     0.19998999
O       7.08949599     0.96365701     0.58287001     2.69395841     1.06178501     0.67809400
O       5.38583624     4.87887121     4.05221580     1.83579353    -0.70406832    -2.35175911
O       5.62337121     0.94629222     3.92110780     0.84239012     0.22340812     0.60208316
O       2.24972522     4.87852825     4.17310079    -0.73263895    -2.60114181     0.26247193
O       2.12142021     0.91215325     4.06192181    -1.28997538    -1.26811817     0.05465910
O       3.61558821     2.73657924     3.11651279     0.35526822     0.61165898    -0.16904213
O       0.02154725     2.68366824     3.25031679    -1.04253927     1.14195204    -0.57613790
O       6.02843899     6.61208000     1.96954602    -1.32923923     0.14131740     1.25383492
O       5.55084498     2.64440598     1.59282802     1.33649874     1.87706850     1.01893473
O       1.90578001     6.74378000     1.83769299     0.23352850    -0.25999159     0.31601132
O       1.68866699     2.76539802     1.31096202     0.16441799    -0.35889862     0.31388065
