# total energy = -19927.70067599 eV

CRYSTAL
PRIMVEC
        6.05528151     0.00000000     0.00000000
        3.03280259     5.68644328     0.00000000
        0.00000000     0.00000000    11.21496115
PRIMCOORD
24 1
Ti      3.99198434     3.36978102     4.16067062     0.84396415    -3.04525017     0.60591719
Ti      5.09609992     2.31666240     7.05429065    -0.84396415     3.04525017    -0.60591719
Ti      6.45785701     2.31666442     1.44676521    -2.21337637    -1.07657811     0.82266230
Ti      2.63022744     3.36977926     9.76819612     2.21337637     1.07657811    -0.82266230
Ti      2.47558328     0.52655958     1.44681020     0.84396415    -3.04525017    -0.60591719
Ti      6.61250110     5.15988407     9.76815119    -0.84396415     3.04525017     0.60591719
Ti      1.11382608     0.52655739     7.05424567     2.21337637     1.07657811     0.82266230
Ti      7.97425828     5.15988619     4.16071554    -2.21337637    -1.07657811    -0.82266230
O       2.98443624     2.00229339     5.72290886     1.66876921     2.05317730    -1.12105359
O       6.10364810     3.68415008     5.49205242    -1.66876921    -2.05317730     1.12105359
O       2.17905496     2.00231628     0.11546432     0.69129945    -1.30676161     1.58185715
O       6.90902945     3.68412723    11.09949660    -0.69129945     1.30676161    -1.58185715
O       4.58724692     0.84092841     0.11542792    -1.66876921    -2.05317730    -1.12105359
O       4.50083740     4.84551500    11.09953299     1.66876921     2.05317730     1.12105359
O       5.39262827     0.84090556     5.72294519    -0.69129945     1.30676161     1.58185715
O       3.69545601     4.84553792     5.49201602     0.69129945    -1.30676161    -1.58185715
O       2.06472481     3.45881711     3.02944080     0.68334265     2.81871635     2.63513104
O       7.02335952     2.22762636     8.18552042    -0.68334265    -2.81871635    -2.63513104
O       4.43570718     2.22757325     2.57807546     0.93176325     1.76813827     1.42274566
O       4.65237716     3.45887022     8.63688558    -0.93176325    -1.76813827    -1.42274566
O       0.54832364     0.61559544     2.57803966     0.68334265     2.81871635    -2.63513104
O       8.53976068     5.07084797     8.63692137    -0.68334265    -2.81871635     2.63513104
O       3.13597598     0.61564855     8.18555615    -0.93176325    -1.76813827     1.42274566
O       5.95210834     5.07079486     3.02940500     0.93176325     1.76813827    -1.42274566
