# total energy = -19960.98687423 eV

CRYSTAL
PRIMVEC
        7.60600008     0.00000000     0.00000000
        0.00000000     7.60600008     0.00000000
       -1.89786986    -1.89786986     4.85670466
PRIMCOORD
24 1
Ti      3.83478401     6.64725802     1.11091000    -1.26106332    -0.09270733     0.47929546
Ti      3.77213901     2.85871298     1.19199901    -0.05160592     0.29175244     1.31206143
Ti     -0.00654100     6.70161701     1.21217998     1.10065753    -0.96598978    -0.05751329
Ti     -0.07648702     2.74154398     1.21690500    -0.21588353     1.43902229     0.84859780
Ti      5.74194020     2.75780724     3.80113781    -1.09510883     1.48786581    -1.04910484
Ti      5.75456023    -0.97632679     3.58302884    -0.91548687    -0.74278812     0.08326392
Ti      1.82215921     2.76777424     3.60202979     1.87089862     0.95777202     0.00584695
Ti      1.92358724    -0.89832876     3.67277883     0.63032957    -0.49924851    -1.06824979
O       3.81244099     4.70293898     0.75728302     0.11759125     1.93177645    -0.81431804
O       3.72613699     1.05605200     0.82848699     0.42901983    -1.68311109    -0.72301556
O       0.01567502     4.73434401     0.96342100    -0.33439703     0.35694433    -1.48372068
O      -0.11092698     0.93301601     0.73389799     0.28416177     0.64213248     0.12637080
O       5.85839222     4.72227623     4.07980382     0.05888111     0.18205500    -0.01751950
O       5.77775523     0.96019524     4.05348281    -0.48453511    -0.85494148     0.63022904
O       1.73498022     4.79277523     4.07780883     0.29489484    -0.31837365     0.27628879
O       1.97299425     0.91516924     3.92058481    -0.08170815     0.99950695     0.77046889
O       3.72370521     2.80405924     3.16221783     1.16498579     0.09367509     0.83760196
O       3.87030821    -1.02145878     3.32994881    -0.09267185    -0.03708715    -0.59172933
O       0.00191721     2.64368921     3.26200679    -0.74345198     0.19894201    -0.91133325
O       0.02262323    -0.75254376     3.15061181    -0.41935274    -0.56963532     0.36013712
O       5.70162298     6.67118302     1.57370699    -0.15170646     0.05407212     0.20243151
O       5.64523898     2.93672302     1.63590702     1.88523741    -0.41352096     0.41442393
O       1.95813903     6.90841900     1.67967802     0.05344966    -1.09219449    -0.30066723
O       1.94242998     3.14349400     1.56708000    -2.04313508    -1.36591912     0.67015417
