# total energy = -19075.77802576 eV

CRYSTAL
PRIMVEC
        7.60600008     0.00000000     0.00000000
        0.00000000     7.60600008     0.00000000
       -1.89786986    -1.89786986     4.85670466
PRIMCOORD
22 1
Ti      3.88506300     6.49563598     1.31501399     0.70958977    -0.47826830    -1.09774550
Ti      3.82188701     2.69146000     1.17891902     0.02760260     0.93877208     0.69397571
Ti      0.08784401     6.72883302     1.11079501     0.04080908    -0.13812820     0.10454264
Ti     -0.00978899     2.92708099     1.05174598    -0.19856766    -0.04516324     0.65937765
Ti      5.77013625     3.01190524     3.56400481    -0.68126494    -0.27260620    -0.52853442
Ti      6.07718023    -0.77593678     3.65141182    -1.21314719    -1.09483630    -0.09409830
Ti      1.88172620     2.78663221     3.63201081     0.31959750     0.29566797    -0.62577692
Ti      1.25971221    -1.09705778     3.89715681     1.93336951     0.32091622    -1.29411821
O       3.75716202     4.71040398     0.79453800     0.10724538     0.53740910     0.44442229
O       4.05028399     0.75565702     0.80289699    -1.01329450     1.03334166     0.96243292
O       0.19280197     4.78171601     0.59424600     0.06133780     0.59790101     0.47606307
O      -0.02971801     1.04989899     0.78621700     0.50319850    -0.41774348     0.18435434
O       5.65873020     4.90403724     4.03520180     0.26259406     0.11527622    -1.03372629
O       5.37442925     0.96466721     3.93186984     1.27329098     0.10311773    -0.00434877
O       1.98232624     4.64558522     4.08842280    -1.07256822     1.05190271     0.66504308
O       1.73979721     0.92522123     4.10877083    -0.29126804    -1.66720624    -0.34333959
O       3.75654923     2.88544421     3.08067384     0.52769521    -0.25955630     0.87782971
O      -0.00913180     2.86388823     3.20489280    -0.08053444     0.09398851    -0.44386307
O       5.94441998     6.51631300     1.68301099    -1.50698377     0.15740171     0.61614942
O       5.74343999     3.13247600     1.55128501    -0.27108976    -0.68611610     0.08282915
O       1.77391401     6.54633502     2.08919898     0.77801456     0.35459897    -0.30791826
O       1.89960901     2.87287598     1.56581903    -0.21562668    -0.54067003     0.00644987
