# total energy = -19933.48099722 eV

CRYSTAL
PRIMVEC
        6.89669010     0.00000000     0.00000000
        0.00002427     3.95239599     0.00000000
        0.00000000     0.00000000    10.43411569
PRIMCOORD
24 1
Ti      2.49973292     2.34218633     3.87098264    -0.01237035     0.90318979     0.34505966
Ti      4.39698161     1.61020999     6.56313348     0.01237035    -0.90318979    -0.34505966
Ti      5.94795978     1.61021138     1.34603376    -0.01076367    -0.90276351    -0.34418034
Ti      0.94875475     2.34218504     9.08808247     0.01076367     0.90276351     0.34418034
Ti      2.49972090     0.36598839     1.34607558    -0.01237035     0.90318979    -0.34505966
Ti      4.39699364     3.58640803     9.08804065     0.01237035    -0.90318979     0.34505966
Ti      0.94874273     0.36598683     6.56309166     0.01076367     0.90276351    -0.34418034
Ti      5.94797181     3.58640954     3.87102446    -0.01076367    -0.90276351     0.34418034
O       2.18285458     1.39170588     5.32444954     2.36963317    -0.31345616     0.68531623
O       4.71385996     2.56069038     5.10966658    -2.36963317     0.31345616    -0.68531623
O       1.26554800     1.39172181     0.10742505    -2.36908809    -0.31342633     0.68424665
O       5.63116659     2.56067451    10.32669075     2.36908809     0.31342633    -0.68424665
O       4.71384793     0.58449238     0.10739121    -2.36963317     0.31345616     0.68531623
O       2.18286660     3.36790393    10.32672459     2.36963317    -0.31345616    -0.68531623
O       5.63115456     0.58447646     5.32448339     2.36908809     0.31342633     0.68424665
O       1.26555987     3.36791985     5.10963268    -2.36908809    -0.31342633    -0.68424665
O       0.25058745     2.40407132     2.81851505    -0.39270993     0.26275604     1.11609727
O       6.64612708     1.54832499     7.61560107     0.39270993    -0.26275604    -1.11609727
O       3.69894102     1.54828804     2.39857615    -0.39127808    -0.26270925    -1.11604868
O       3.19777352     2.40410828     8.03553976     0.39127808     0.26270925     1.11604868
O       0.25057543     0.42787327     2.39854285    -0.39270993     0.26275604    -1.11609727
O       6.64613911     3.52452304     8.03557306     0.39270993    -0.26275604     1.11609727
O       3.19776149     0.42791023     7.61563432     0.39127808     0.26270925    -1.11604868
O       3.69895304     3.52448609     2.81848175    -0.39127808    -0.26270925     1.11604868
