# total energy = -19072.68156847 eV

CRYSTAL
PRIMVEC
        7.60600008     0.00000000     0.00000000
        0.00000000     7.60600008     0.00000000
       -1.89786986    -1.89786986     4.85670466
PRIMCOORD
22 1
Ti      4.05757901     6.61709301     1.26564598    -0.27675468    -0.11716496    -0.94556802
Ti      3.52397700     2.65792699     1.15505699     1.49346388     1.22153774     0.67929548
Ti      0.02111602     6.83265299     1.00117499     0.58423533    -1.02904303     0.45670702
Ti     -0.18559400     2.94467401     1.06202900    -1.58882433    -0.20877031    -0.72459525
Ti      5.56827322     2.93508522     3.49091083    -0.55297919    -0.79820827     0.12136126
Ti     -1.04339080    -0.72953476     3.88595381    -4.15430518     0.05530059    -0.68618089
Ti      1.78470822     2.71772921     3.77437483     1.28338359     0.41252954     1.41979017
Ti      1.68184823    -1.02036180     3.84479880     1.21834905     1.11999866    -2.03901026
O       3.83111401     4.65293798     0.86330702    -0.39571555     0.92707715    -0.40761565
O       4.07168699     0.84575003     0.95747300    -1.12907852    -0.31766223     0.36555084
O       7.27735799     4.82119099     0.62754098     0.77511770    -1.10616432     0.32255632
O       7.04640599     0.95541000     0.52928197     2.81282287     1.06168268     0.83321514
O       5.38711320     4.86375224     4.03750780     1.94855239    -0.82297058    -2.19590006
O       5.57235720     0.93925723     3.90083179     0.79671857     0.46469236     0.51001218
O       2.23590623     4.87340724     4.18407582    -0.67594841    -2.53800732     0.32742188
O       2.13527921     0.90416723     4.06806683    -1.19328953    -1.36547920     0.08668915
O       3.57008924     2.75834922     3.11777879     0.23085584     0.55625632    -0.59566286
O       0.03815723     2.68364220     3.26329883    -1.24501243     1.09507875    -0.94657589
O       6.08540201     6.63437699     1.97397201    -1.72361369     0.12873827     1.69251850
O       5.52623602     2.60633702     1.61025901     1.40590364     1.94796129     0.99576626
O       1.88020201     6.73630500     1.82589202     0.31291391    -0.19727105     0.35532993
O       1.66898800     2.72101100     1.12173798     0.07320473    -0.49011235     0.37489500
