# total energy = -19907.93869877 eV

CRYSTAL
PRIMVEC
        6.60599360     0.00000000     0.00000000
        1.39226709     6.89154458     0.00000000
        0.00000000     0.00000000    11.88342693
PRIMCOORD
24 1
Ti      3.21941103     4.08392294     4.40866679    -0.25095005    -1.64317156     0.66313455
Ti      4.77884934     2.80762181     7.47476062     0.25095005     1.64317156    -0.66313455
Ti      6.26445390     2.80762428     1.53299943     0.24124259    -0.12838037    -0.37527244
Ti      1.73380650     4.08392073    10.35042811    -0.24124259     0.12838037     0.37527244
Ti      2.52327765     0.63815090     1.53304708    -0.25095005    -1.64317156    -0.66313455
Ti      5.47498274     6.25339404    10.35038046     0.25095005     1.64317156     0.66313455
Ti      1.03767300     0.63814824     7.47471297    -0.24124259     0.12838037    -0.37527244
Ti      6.96058739     6.25339671     4.40871444     0.24124259    -0.12838037     0.37527244
O       2.58107948     2.42663003     6.06402199     1.73172372     1.86813237    -0.48676632
O       5.41718089     4.46491471     5.81940542    -1.73172372    -1.86813237     0.48676632
O       1.70244321     2.42665778     0.12234656    -0.92946262     0.42832049     0.70834278
O       6.29581723     4.46488702    11.76108051     0.92946262    -0.42832049    -0.70834278
O       4.72104749     1.01914248     0.12230798    -1.73172372    -1.86813237    -0.48676632
O       3.27721288     5.87240227    11.76111909     1.73172372     1.86813237     0.48676632
O       5.59968383     1.01911479     6.06406056     0.92946262    -0.42832049     0.70834278
O       2.39857648     5.87243003     5.81936684    -0.92946262     0.42832049    -0.70834278
O       1.08686672     4.19182799     3.21001020     0.50590459     1.20784995     1.43427449
O       6.91139365     2.69971675     8.67341721    -0.50590459    -1.20784995    -1.43427449
O       4.08841912     2.69965238     2.73174131     0.56338599     1.44326873     0.66209659
O       3.90984125     4.19189236     9.15168590    -0.56338599    -1.44326873    -0.66209659
O       0.39073332     0.74605576     2.73170334     0.50590459     1.20784995    -1.43427449
O       7.60752706     6.14548906     9.15172387    -0.50590459    -1.20784995     1.43427449
O       3.21370784     0.74612006     8.67345511    -0.56338599    -1.44326873     0.66209659
O       4.78455253     6.14542469     3.20997223     0.56338599     1.44326873    -0.66209659
