# total energy = -39036.16032984 eV

CRYSTAL
PRIMVEC
        7.60600008     0.00000000     0.00000000
        0.00000000     7.60600008     0.00000000
       -3.79573973    -3.79573973     9.71340985
PRIMCOORD
46 1
Ti      1.73278143     4.76452945     6.17636461     0.28635569     0.84533532     0.25683093
Ti      3.71504898     6.66593199     1.31971700     0.61362691     0.91549433    -0.73077927
Ti      1.93257543     0.78557347     6.03848362    -0.11990318    -0.16974429     2.07505174
Ti      3.90252601     2.67160400     1.25459401    -0.26167052     0.37671972    -0.73980127
Ti     -2.00876954     4.82630343     6.13230865    -0.27252495    -0.23707174    -1.23115109
Ti     -0.03108900     6.60895500     1.22238500     0.17975874     1.18866000    -1.69529504
Ti     -1.88850957     0.95353946     6.01383163    -0.35820545     0.15548315     0.30678594
Ti      0.00661599     2.88741698     1.16257998     1.05845183    -1.06384215    -0.69362964
Ti      3.79801943     0.96384545     8.50465762     0.21379733     0.62230361    -1.01618854
Ti      5.87362300     2.88180802     3.62112198     0.03019967     0.39195377     0.84748502
Ti      3.65957946    -2.79569554     8.46627063     0.68074301    -0.77227637     0.42293840
Ti      5.77094901    -0.94764803     3.51751902    -1.05912520    -0.32376166     1.30232543
Ti     -0.01522554     0.96584146     8.38930264    -0.15678593     0.49026559     0.68160947
Ti      2.08413899     2.87943302     3.42096698    -0.73295031    -0.34925981     2.14668553
Ti     -0.09875654    -2.80810257     8.54215565    -0.71084087    -0.55487769     0.91076992
Ti      1.92564500    -1.07570400     3.72890200     0.45769536     1.05256272    -0.10610304
O       1.72022644    -1.00657953     5.75274362    -0.36064775    -0.12960807    -0.71092417
O       3.64545101     0.93171900     1.03032398     0.77512593    -0.80735935    -1.66982259
O      -1.78070653     2.90810046     5.59742861    -0.53923741    -0.30578038    -0.32455510
O       0.14130102     4.77593300     0.69655702    -0.23187708    -0.33325340     0.96156440
O      -1.79236653    -0.96071855     5.53796465    -0.31831580     0.33419520     0.68177119
O       0.12585301     0.93702098     0.68448601    -0.66181917    -0.08466929     1.05274964
O       3.66601743     2.89727947     8.82363164    -0.35008179    -0.10811467     0.16992376
O       5.50223100     4.78197102     4.01362402     0.53509845    -0.41634866    -0.41523151
O       3.99980043    -0.97417753     8.88889163    -0.26518239     0.82354136     0.02124066
O       5.95856801     0.92973998     4.01888298    -0.20010158     0.75351143    -0.28245610
O       0.05679845     2.80250546     9.07509064     0.14577106    -0.41251360    -0.40383098
O       1.89271399     4.71898401     4.25518899     0.56280929    -1.64588253    -1.40582548
O      -0.17299355    -0.93826857     9.00706861     0.12018343     1.15867373    -0.03881879
O       1.88127799     0.91500102     4.28699497    -0.26949259     1.84914374    -2.74380544
O       1.95708342     0.83985044     8.12697165    -1.73093003     0.24497609     0.26843150
O       3.93362099     2.71662100     3.18636498     0.07848244     0.37266226     0.85504793
O       1.73745745    -2.53376656     8.12871661     1.04885261    -1.05599977     0.36795868
O       3.73545300    -0.68856999     3.36732698     0.04552783    -1.31236867    -0.49792285
O      -1.94787653     1.27310347     8.02406461     0.37686113    -0.94229989    -0.28735302
O       0.23276200     2.94518102     3.05633099    -3.00101586     0.13268003     1.46373703
O      -1.91559757    -2.99369853     8.03596962    -1.22279861     0.23590703     0.36796845
O      -0.01945398     6.36779797     3.10666898     0.59411814     0.52513619     0.46772883
O       3.66710944     4.99298347     6.47277161     0.56895886    -1.09178902     0.42356061
O       5.62520402     6.72796802     1.52587397     1.41561033    -0.59008716     0.97729390
O       3.72225347     0.76254548     6.48375664     1.52619352     0.60833403    -0.69482983
O       5.77227698     2.88887402     1.61405702     0.39833730     0.18818682    -0.52243936
O      -0.12371952     4.86305743     6.56468663     0.98538594    -0.71900232    -0.28796597
O       1.94562901     6.63351999     1.59872898    -1.78393154    -0.79291771     0.98753255
O      -0.07027453     0.97416346     6.49845263     1.16356268    -0.01143833    -0.30681140
O       1.97023898     2.67619202     1.62259800     0.74593053     0.96454071    -1.21145181
