# total energy = -19960.58570192 eV

CRYSTAL
PRIMVEC
        7.60600008     0.00000000     0.00000000
        0.00000000     7.60600008     0.00000000
       -1.89786986    -1.89786986     4.85670466
PRIMCOORD
24 1
Ti      3.74498502     6.61328399     1.25407002     0.38523213    -0.73630277    -0.98584565
Ti      3.74183303     2.87627701     1.14165002    -0.75538628     0.78121584     1.59859530
Ti      0.03250402     6.66289700     1.26999899    -0.27923065    -0.10377619    -0.83669307
Ti     -0.09853201     2.86070898     1.20498502     1.24153244     0.27979064    -0.37844287
Ti      5.68464623     2.91169823     3.61976279     0.98293002     0.00401529     0.66372847
Ti      5.71982922    -0.96343280     3.62471779     1.89165231    -0.06248631    -0.12711642
Ti      1.91139024     2.79989821     3.60572483    -0.96042566     1.47501081     0.18518300
Ti      2.04314923    -1.01664279     3.72811479    -1.80176086    -1.68364665    -0.74100326
O       3.54853701     4.74255002     0.77471502     1.00812144    -0.20071067    -0.23960196
O       3.63632699     0.85968702     0.89539601     0.66358603     1.47490128    -0.38522699
O      -0.01798800     4.79520998     0.66887798    -0.37563163    -0.36717732     0.42483819
O       0.04322002     0.95849097     0.69934398    -0.37510944     1.27725356     0.79666021
O      -1.55134079     4.82247922     4.09470583    -0.67898386    -1.00033305    -0.66464713
O       5.97799924     0.99265323     3.94524082    -1.56671643    -0.35600022     0.47826265
O       1.67379023     4.72984225     4.05178082     0.93719085     0.30390759     0.90244109
O       1.84156223     0.90962722     4.13463579     0.72088411    -0.57609084    -0.94960722
O       3.77274825     2.96563023     3.24040483     0.35298303    -0.63462203    -0.09117598
O       3.86520922     6.21745221     3.27415580    -0.39217514     1.29289590    -0.18606206
O       0.02138924     2.77496221     3.12814781    -1.36742501    -0.12857860     0.00637300
O       0.03718121    -1.01007179     3.12909382     0.42189993     0.44419346     0.88209774
O       5.78349802     6.72890297     1.53602899    -1.75540334    -0.15261791     0.44494037
O       5.64778200     3.06472899     1.56360500    -0.42999197    -0.55662270    -0.20008049
O       1.94606997     6.62552502     1.71745900     0.43402680     0.38068539     0.69452593
O       1.78056497     3.14594801     1.74864902     1.69820090    -1.15490449    -1.29214360
