# total energy = -19958.22659579 eV

CRYSTAL
PRIMVEC
        7.60600008     0.00000000     0.00000000
        0.00000000     7.60600008     0.00000000
       -1.89786986    -1.89786986     4.85670466
PRIMCOORD
24 1
Ti      3.77925200     6.58919102     1.24202102    -0.85044668     2.26940613    -2.70367667
Ti      4.04615900     2.95792101     1.17318501    -4.31407385    -2.54788962     0.35677952
Ti     -0.13676798     6.68299701     1.21456498     0.70428095    -1.16153819     3.28241704
Ti      0.00658498     2.70830398     1.21129699     2.35793850     1.62475088     0.82135129
Ti      5.70740620     2.76768121     3.71425183    -0.06983067    -0.40567703     0.63142512
Ti      5.57028224    -1.01368480     3.67035081     1.68391636     0.36633811    -0.76689351
Ti      1.90993823     2.90239921     3.60755181     0.00207180     2.04634228    -2.12465323
Ti      1.97899321    -0.74682875     3.60518681    -2.30622743    -2.49234888     1.38561377
O       4.06561701     4.78553403     0.68093602    -0.39907624    -0.14559186     0.36373693
O       3.96123902     0.97288301     0.69515602    -0.48234993     1.62939558     0.58115592
O      -0.01295399     4.51890701     0.91867700    -0.58358844     2.23538220    -1.98234904
O       7.17613099     0.92154498     0.99614299     1.37911068    -1.07179303    -1.54397656
O       5.55829125     4.67468325     4.22290880     0.10270687     0.05878058    -1.46968554
O       5.71627923     0.83419724     4.02105679     0.44112330     0.18061132     0.48756413
O       2.06282420     4.92128625     4.03140882    -0.49933979    -3.03777340     0.84548213
O       1.76421223     1.03442622     3.68424383    -0.08795310     1.03493728     1.94790216
O       3.71543322     2.74150525     3.13891482     2.98504365     0.44851240     0.41869274
O       3.79952520    -0.73856777     3.22601480     0.91700357    -0.50460489     0.02571901
O      -0.07456780     2.95308825     3.13728379     0.38721548    -0.26681119     1.33857157
O       0.06815824    -1.22145275     3.14352279    -3.16024717     0.77659840     0.63985937
O       5.56726900     6.79294501     1.69047101     1.59974227    -1.47008226     0.83525248
O       5.69876902     2.82662499     1.70373802     0.95296431     0.18676192     0.28250829
O       1.85927099     6.52198700     1.77682898     1.24913340     0.31949183    -3.45768098
O       2.04759702     2.86898500     1.56669201    -2.00911783    -0.07319831    -0.19511621
