# total energy = -19073.51065563 eV

CRYSTAL
PRIMVEC
        5.93400000     0.00000000     0.00000000
        0.00000000     9.29699974     0.00000000
        0.00000000     0.00000000     4.64899994
PRIMCOORD
22 1
Ti      4.37627898     6.85335499     2.43149400     0.09544684     0.20170106    -0.46570692
Ti      4.39769298     2.39690502     2.20185002    -0.88754617    -1.51663390    -0.15651108
Ti      1.49787499     7.15705198     2.58458101     0.33475287    -0.59388160    -0.62654413
Ti      1.62203802     2.48645499     2.09366100    -0.15848723    -0.09755669     0.34284671
Ti      3.02038102     4.59873297     4.53816001    -0.49508435     0.37101110    -0.68419574
Ti      2.99985799     9.22101502     4.62398902     0.59794086     1.10122909     0.90325484
Ti      5.75922001     4.58015102     4.44207598     1.07072860    -1.28121358    -0.30964964
Ti      0.01855899     9.04636701     0.34966001    -0.39363193     1.73482988     0.07767203
O       4.55332602     5.47208600     0.80949800    -1.02918572     1.22326475     1.54381972
O       4.54453602     0.84040698     1.03951198     0.20618764    -0.13873652    -0.67029301
O       1.60600300     0.67193202     1.20915700    -1.40514825     1.50153046    -1.24208806
O       4.55446301     8.22964902     3.92997702    -0.29335424     0.75968645    -0.83047743
O       4.33846699     3.98611902     3.23064399     0.23382598     0.38920654     2.11355634
O       1.39886498     8.49418600     3.73138098     0.28709154     1.50859123     0.85733338
O       1.56504299     3.99751401     3.49684301    -0.72160994    -1.10105940    -0.23298934
O       2.85810199     6.24525100     3.44351401     0.51622526    -0.64955063     0.22285019
O       2.82912499     1.67289799     3.24728000     0.59507176    -0.96387608     0.59348359
O       0.09248198     6.12948702     3.41601399    -0.05663011     0.13931013    -0.88104102
O       3.00888697     7.99180602     1.44071501     0.17537630    -2.03919898     0.76146411
O       3.06149000     3.03589798     0.98563401    -0.56203693     0.51714134     0.64658949
O       0.01456402     7.82253698     1.59309700    -0.76428692    -1.18668668    -0.13807035
O       5.74883601     3.24923198     1.39589799     2.65435415     0.12089254    -1.82530369
