# total energy = -19956.16142348 eV

CRYSTAL
PRIMVEC
        5.93400000     0.00000000     0.00000000
        0.00000000     9.29699974     0.00000000
        0.00000000     0.00000000     4.64899994
PRIMCOORD
24 1
Ti      4.57277302     7.14472300     2.54327201    -2.46946940    -2.15820639    -2.12906138
Ti      4.58287898     2.43593502     2.16502399    -3.10221349    -0.32488986     0.13845190
Ti      1.46221602     6.48713898     2.36591698     2.22487923     2.17133831    -0.99643449
Ti      1.41652198     2.42797201     2.47681100     1.32647581     0.03528660    -2.11057206
Ti      3.12021698     4.52256500     0.00620100     0.62907770     3.11430154     1.25403186
Ti      2.92058502     0.24279499     4.41778399    -2.65395615    -0.85038986     0.21866983
Ti      0.04027499     4.40828399     0.01464800    -1.35164152     3.66213749    -0.80473091
Ti      5.85173400     0.20985900     4.63968299     2.20765001    -2.20715790     0.29945290
O       4.58170500     5.38277400     0.96321600    -0.51696008    -0.91152840    -0.76724215
O       4.42127698     1.19146502     0.61069499    -2.68285664     0.12199992     1.72177252
O       1.52004302     5.45227900     0.81765198    -0.19899292    -0.23117568     1.38009747
O       1.16122301     1.23867800     0.67799602     2.35528924     0.17855804     1.65412806
O       4.20527201     8.62059999     3.51505999     0.56257275     1.38747422     2.17273750
O       4.35901102     3.53544702     3.76109502     1.57302592    -0.44446214    -0.50970391
O       1.18311201     8.56043502     3.83975399     2.60435183    -1.27416798    -0.67594610
O       1.58862498     3.68650500     3.77974000    -0.44940792    -0.00748834    -0.33822103
O       3.18781201     6.05531500     3.38472802    -2.04541334    -1.57133645     0.52678298
O       2.77528998     1.44187598     2.97497502     2.44920678    -2.43807904     1.59399945
O       5.86140101     5.87604499     3.46190599     0.82675910     0.99193428    -1.56773022
O       0.01904699     1.48145103     3.17446198    -1.62249757     0.06437968    -1.27945057
O       2.89597600     7.62379002     1.63917299    -0.00381552     0.60823762    -0.90215338
O       3.01019499     3.22136402     1.42918599    -0.25079321     0.19705456     0.31408402
O       0.02497198     7.66784498     1.51067002     0.62938495     0.57845780    -0.08249902
O       0.03822300     3.37733499     1.52549302    -0.04065533    -0.69227801     0.88953646
