# total energy = -19071.35178768 eV

CRYSTAL
PRIMVEC
        7.60600008     0.00000000     0.00000000
        0.00000000     7.60600008     0.00000000
       -1.89786986    -1.89786986     4.85670466
PRIMCOORD
22 1
Ti      4.07892200     6.73001800     1.22043800    -0.79557726     0.30321288     1.57129531
Ti      3.38939902     2.81125700     1.15455898     0.10818255     0.28823183    -1.97632674
Ti      0.09459599     6.62827902     1.14447302    -0.39585439    -0.88747495     1.46567564
Ti     -0.12431601     2.82003102     1.13680201    -0.97132200     1.08485784     1.80181845
Ti      5.36303823     3.01679225     3.61578581     0.25761281    -1.33337254    -2.76630748
Ti     -1.29156276    -0.51057879     3.90442681    -0.05403638     1.06499298    -2.02775680
Ti      1.96695221     2.73148321     3.80184681    -3.55507723    -0.58210954     0.89317869
Ti      2.08320324    -1.00411277     3.72718482    -1.09352838     0.83273023    -0.04663160
O       3.42868397     4.63868702     0.76243001     0.89037953     1.90435820     0.94897910
O       3.75159899     1.01188099     0.99298698     0.50233281    -3.82537535    -0.50995536
O      -0.11006199     4.74542599     0.54994502     1.19206388    -0.07494074     3.57633820
O       0.09835198     0.93626198     0.65484102    -1.19432414    -1.64263342     2.92869996
O       5.31495724     4.78193022     4.26687984     0.11808258     0.36148438    -3.37452659
O       5.15380424     1.02572125     4.14083479     0.04058179    -1.63502861    -2.73271755
O       2.35117320     4.73251724     4.31217683    -0.01086857    -0.12613991    -1.99910904
O       1.94094421     0.86483523     4.04370880     1.53156841    -1.08868879    -0.53573377
O       3.57043421     2.61073724     2.99098983     0.46395162     1.20678294     1.30276071
O       0.26972223     2.42739420     3.02122680    -0.12440519     1.95547792    -0.67203159
O       5.84825498     6.47299301     1.92998002    -0.01590768     1.10761545     0.58167837
O       5.51957701     2.80830398     1.59496801     1.54731103     0.78592251     0.87867766
O       1.88038802     6.53738500     1.88797102     0.65057033     0.17719458    -0.23375707
O       1.64254899     2.60028699     0.25720798     0.90826387     0.12290263     0.92575175
