# total energy = -19517.04770183 eV

CRYSTAL
PRIMVEC
        5.93400000     0.00000000     0.00000000
        0.00000000     9.29699974     0.00000000
        0.00000000     0.00000000     4.64899994
PRIMCOORD
23 1
Ti      4.57547902     7.04175902     2.29285300     1.21680973    -0.37665904     0.72644618
Ti      4.38618099     2.26044402     2.33814602     0.84352398    -0.16124474     0.09349949
Ti      1.52135798     7.19058398     2.19221100    -0.46052229    -0.42088717     0.05512756
Ti      1.45218700     2.30587902     2.36845000    -1.00698861    -0.60826950    -0.22752112
Ti      3.02768901     4.45374598     0.04936298    -0.28725609     0.36392719     0.97527687
Ti      2.95297897     9.29145402     4.61469799    -0.39967119    -0.46063824    -0.24765286
Ti      0.02043302     4.62711698     0.05467200     0.37436793     1.55451449    -0.54141462
Ti      5.87694300     0.14717298     0.04498001     0.59665993    -0.47551542    -0.64270327
O       4.40885100     5.55259402     0.90093501    -0.23660560    -0.38984520    -0.17377373
O       4.39003198     0.89156201     0.98526401    -0.65890328    -0.56205082    -1.36286233
O       1.49388801     5.73198399     0.86538599     0.35862557    -1.11274147     0.19199077
O       1.56970001     0.80228801     1.08376601    -0.40458380     0.54722043    -1.09637202
O       4.49787602     8.41359802     3.68525398    -0.60788332    -0.41141317     0.51618849
O       4.43609199     3.71235500     3.61859601    -0.55148178     1.10604014     1.63786094
O       1.22820600     8.32321899     3.83497198     2.24393652     0.06846927    -0.71751545
O       1.47837201     3.81135099     3.70335099     0.47562084    -0.90884648     0.07968186
O       3.00767399     1.34367301     3.19649698    -1.70768699    -0.30820494     1.28365484
O       0.07955100     5.93602501     3.26854398    -0.86753784     1.00651630    -1.01104196
O       5.86025000     1.28100800     3.11328999     0.85078478     0.64549600     1.54314429
O       3.13883401     7.89477798     1.32441000    -1.23422022    -1.07266489     1.29689037
O       2.91002502     3.20511399     1.47469200    -0.36553979     0.66110672    -1.12029434
O       0.00591398     7.98235502     1.47644898    -0.51235446    -0.35281051    -0.08926179
O       5.75571299     3.03996598     1.37936998     2.34090622     1.66850130    -1.16934844
