# total energy = -39032.91180494 eV

CRYSTAL
PRIMVEC
        5.93200024     0.00000000     0.00000000
        0.00000000     9.29399984     0.00000000
        0.00000000     0.00000000     9.29399984
PRIMCOORD
46 1
Ti      4.48190201     7.11868800     6.89180500    -1.81218129    -1.23847257     0.60908685
Ti      4.39667998     6.85663498     2.36638298    -0.12679991     0.81905684    -0.50073950
Ti      4.46137798     2.20789100     6.93666198    -0.14226948    -0.49943595     0.28086356
Ti      4.59164602     2.55483702     2.22898099    -0.78370570    -0.16080354     0.32123452
Ti      1.49424801     6.96113098     7.07337101     1.20262521     0.01080584     0.75837904
Ti      1.43382698     6.90566998     2.25731499     0.22590544     1.18075848     0.50209498
Ti      1.48583500     2.38289600     6.82078301    -0.46029063    -1.25389482    -0.21144272
Ti      1.64897600     2.33198000     2.36519799    -0.51258200    -0.09287831    -0.38788011
Ti      2.79100501     4.69088999     4.79258002     0.92138704     0.29071397    -0.92258698
Ti      2.93681901     4.68530600     9.16359098     0.68362547     0.70110872    -0.23537764
Ti      2.99796603     0.05789998     4.62149299    -0.77455309    -0.62633922    -0.19969149
Ti      3.10485300     9.18013201     0.00897601    -1.58345458     0.61225985     0.31786714
Ti      5.80891499     4.79050602     4.71312400    -0.70717319    -0.90163248    -0.51023973
Ti      5.91467302     4.71029799     9.23930101    -0.74435855     0.70147151     0.00482751
Ti      5.93186303     8.98394600     4.76366498     1.00369965     0.86295176    -1.38551401
Ti      0.03506201     0.09272900     0.00073101     1.22876177    -0.47632969     0.79826535
O       4.33393501     5.67353198     5.56394699    -0.16173479     0.19208745     1.45463866
O       4.44381099     5.80141898     0.74124498     0.58772869    -1.61525631     0.94542429
O       4.58503602     0.59547702     5.70650702    -0.73392604     1.10521379    -0.59977277
O       4.40860800     1.04627899     0.93868599     0.69008614     0.15970799     0.08996782
O       1.19577098     5.62626401     5.68521600     2.35078517    -0.51111724     0.22594940
O       1.53411300     5.58577602     0.88458698    -0.42304484    -0.84068163    -0.15220756
O       1.36044100     0.69714001     5.67416000     0.48517172     0.39510568    -1.43805376
O       1.57635002     0.84733698     0.79385001    -0.66133580     1.61923278     1.74875960
O       4.51046700     8.43864202     8.29460399     0.54807172    -0.35633266     0.52587255
O       4.31801302     8.33591802     3.73823399     0.89593054     0.28757337     0.56654999
O       4.46390501     3.87937498     8.33345899    -0.29277163    -1.82022190    -0.31504459
O       4.33423002     4.07427900     3.77456502     0.21467717    -2.67151139    -1.86229159
O       1.40721000     8.14712002     8.54109200    -0.31130774     1.58033352     0.07605686
O       1.65504402     8.20684301     3.75599402    -1.04276681     1.77545152     0.67454176
O       1.61365898     3.72687800     8.13522702    -0.26649854     0.33214423     1.15803866
O       1.39255099     3.81718300     4.01468100    -0.40277554    -1.87526615    -2.24363852
O       2.88078898     6.14341100     8.04142300     1.01064678     0.03893577    -1.50775896
O       2.75328399     5.87304302     3.29342500     0.51037677     1.46626648    -0.98566259
O       2.99293201     1.24679399     7.98127502     0.05392505     1.42054248    -1.69218811
O       3.04316798     1.51669000     3.26358401     0.21869606     0.28527609    -0.01102207
O       5.92350700     5.97067998     7.85705299    -0.36288641     0.79748939    -0.07834720
O       5.91654599     6.10629302     3.28747599     0.01202994    -0.06861557    -0.36706316
O       0.04113898     1.39741498     7.76009200     0.16994124    -0.13176831     1.45993051
O       2.94832502     7.86567498     6.05860002    -0.14060726    -0.46345052     0.91521382
O       3.00157099     7.84898801     1.51289998    -0.49358797     0.10225847    -0.49616627
O       3.06797702     2.87136899     5.73963198    -0.69733383     0.51775789     1.73528830
O       0.04897599     7.75103302     6.02061103    -0.11695490    -0.41146819     0.61319188
O       5.79413300     8.08048401     1.60499502     0.56985977    -1.10458644    -0.42791091
O       5.81857501     3.07296499     5.92580400     0.49003033     0.44601406     0.60411922
O       0.19236800     3.35407601     1.47571400    -0.31906091    -0.58045478     0.14443717
