# total energy = -4988.68722620 eV

CRYSTAL
PRIMVEC
        4.08079673     0.00000000     0.00000000
        0.60868664     4.03514591     0.00000000
       -2.34477845    -2.01760460     5.22279766
PRIMCOORD
6 1
Ti      0.45636658     3.02651367     1.30569913    -0.00009822     0.00009822     0.00000000
Ti      1.88833875    -1.00897199     3.91709796     0.00009822    -0.00009822     0.00000000
O       0.15221458     1.00878044     0.85075092    -0.00066823    -0.00146990    -0.94594006
O       2.19249057     1.00876108     4.37204617     0.00066823     0.00146990     0.94594006
O      -0.15218961    -1.00875896     3.46214976    -0.00146990    -0.00066823    -0.94594006
O       2.49689471     3.02630048     1.76064734     0.00146990     0.00066823     0.94594006
