# total energy = -19912.81808563 eV

CRYSTAL
PRIMVEC
        6.47228588     0.00000000     0.00000000
        2.95047400     6.22460528     0.00000000
        0.00000000     0.00000000    11.90406330
PRIMCOORD
24 1
Ti      4.09434043     3.68869529     4.41632255     0.00939044    -2.34325338     0.48038818
Ti      5.32841923     2.53590991     7.48774081    -0.00939044     2.34325338    -0.48038818
Ti      6.78395519     2.53591201     1.53566158    -0.61446534    -1.28234049     0.41128976
Ti      2.63880459     3.68869342    10.36840197     0.61446534     1.28234049    -0.41128976
Ti      2.61910358     0.57639275     1.53570929     0.00939044    -2.34325338    -0.48038818
Ti      6.80365612     5.64821264    10.36835426    -0.00939044     2.34325338     0.48038818
Ti      1.16356758     0.57639045     7.48769310     0.61446534     1.28234049     0.41128976
Ti      8.25919219     5.64821492     4.41637032    -0.61446534    -1.28234049    -0.41128976
O       3.08743133     2.19178931     6.07455239     1.81043371     2.06347972    -0.88593589
O       6.33532833     4.03281589     5.82951104    -1.81043371    -2.06347972     0.88593589
O       2.22658537     2.19181445     0.12255902     0.04711368    -1.05435478     1.73300182
O       7.19617438     4.03279086    11.78150408    -0.04711368     1.05435478    -1.73300182
O       4.86009146     0.92051322     0.12252035    -1.81043371    -2.06347972    -0.88593589
O       4.56266822     5.30409204    11.78154269     1.81043371     2.06347972     0.88593589
O       5.72093750     0.92048813     6.07459099    -0.04711368     1.05435478     1.73300182
O       3.70182211     5.30411715     5.82947237     0.04711368    -1.05435478    -1.73300182
O       2.02979861     3.78615782     3.21558449     0.65845951     2.98479631     2.79727489
O       7.39296099     2.43844739     8.68847894    -0.65845951    -2.98479631    -2.79727489
O       4.62710975     2.43838946     2.73648506     0.64864509     2.11993294     1.74571027
O       4.79564991     3.78621574     9.16757811    -0.64864509    -2.11993294    -1.74571027
O       0.55456172     0.67385509     2.73644703     0.65845951     2.98479631    -2.79727489
O       8.86819788     5.55075012     9.16761613    -0.65845951    -2.98479631     2.79727489
O       3.32041302     0.67391300     8.68851684    -0.64864509    -2.11993294     1.74571027
O       6.10234664     5.55069219     3.21554646     0.64864509     2.11993294    -1.74571027
