# total energy = -39035.25332992 eV

CRYSTAL
PRIMVEC
        7.60600008     0.00000000     0.00000000
        0.00000000     7.60600008     0.00000000
       -3.79573973    -3.79573973     9.71340985
PRIMCOORD
46 1
Ti      1.91002845     4.83145444     6.22874660     1.16752012     0.53453023     2.50816991
Ti      3.84292398     6.97149598     1.36437702     1.56955750    -1.14205257    -1.17230623
Ti      1.92303245     0.74492244     6.03459464    -0.73710187     0.39927293     1.50603709
Ti      3.64308998     2.78247002     1.27292497     1.64488443     1.80939858    -1.33911793
Ti     -1.80793053     4.55599344     6.11383465    -0.89466427     1.23446268     0.54795191
Ti      0.10105502     6.49673101     1.17460897    -0.85814456     0.62767028     0.09935055
Ti     -1.98803855     0.88691044     5.86859962     0.14044245    -1.05071949     1.30046780
Ti     -0.09122698     2.82140699     1.12374297    -1.94914940    -0.09878876    -1.41505137
Ti      3.73824245     1.05038943     8.36806163     0.05743461    -0.92010715     0.68966268
Ti      5.65082699     2.77944101     3.59262298     0.08150040    -1.46499353    -1.37334421
Ti      3.95753943    -2.79224154     8.57602061    -0.96099670     1.19729454    -0.15735337
Ti      5.76115902    -1.13988299     3.71539999     0.67997193     0.70778074    -0.34216819
Ti     -0.06672756     1.07215745     8.27296361     0.01485507     0.23987604     1.58400377
Ti      1.78607900     2.86197800     3.57498503    -0.23944127    -1.42426724    -2.21256570
Ti      0.07924445    -2.64079355     8.51658062     0.58110347    -0.89722920     0.88669513
Ti      1.99107798    -0.97035597     3.69260298    -0.99935706     0.20658462     1.23243228
O       1.81254845    -1.01275355     5.78407361     0.41931443    -0.46303991    -0.93239728
O       3.81968003     1.08890099     0.90227700    -0.00454391    -0.92615875    -1.68638050
O      -1.58737956     2.66082244     5.60429860    -0.80540248     2.14939419    -0.24223837
O       0.13968798     4.65019700     0.58763297     0.06687545     2.35992056     0.85883311
O      -1.76098653    -1.04617855     5.75115762    -0.38650174    -0.33633616    -1.29758611
O      -0.01552400     0.91609298     0.75132401     0.50405416     0.12525494     1.49573391
O       3.71723845     2.89455743     8.90842865     0.36046623    -0.85729764     0.30949717
O       5.57508500     4.51501798     4.12176398    -0.39927781     2.18862615     0.53331410
O       3.38716245    -0.94385652     8.82997061     1.83221764    -0.03049509     0.21891152
O       5.69075198     0.85803101     3.94657599     0.54941641    -0.45208444     0.57539870
O      -0.04011455     2.87598644     8.96347261     0.12331787    -0.80741848     0.64068598
O       2.04858399     4.41258699     4.43998499     0.22506031     0.07101981    -1.53824557
O       0.16038643    -0.80367456     8.90219663    -0.96152300     1.34890998     0.32513026
O       1.65945101     1.13532899     4.25245102    -0.14126777     0.05461565    -1.65553600
O       1.88844845     0.95351247     7.95843562    -0.50896523     0.91288311     0.31153811
O       3.77043601     2.38134202     3.02443002    -0.52970093     1.41221930     2.47932521
O       1.92819347    -2.82198554     8.27282660    -0.79750970    -0.60255342    -1.22982029
O       3.84859798    -0.78278502     3.33893599    -0.80837133    -0.85851969     0.25823141
O      -2.04901553     1.02695344     7.94372460     0.77598776    -0.45057417     0.03335185
O      -0.16103202     2.85818999     3.03493398     0.91681742    -0.04549749     1.33644115
O      -1.82536353    -2.47925654     8.24587661    -0.04532342    -1.09730764    -0.56614299
O       0.04240599    -1.18422799     3.30405299     0.77122402     0.00919607    -0.55052687
O       3.88887546     4.78209845     6.66854062     0.00306116    -1.09044974    -1.72116703
O       5.72409698     6.61767701     1.72224700     0.66819396    -0.70094726    -0.36564700
O       3.71252343     1.18129746     6.29615462     0.68244945    -0.13680588    -0.39716745
O       5.62434500     3.11708901     1.38033298    -0.90496951    -0.07514643     1.60496855
O       0.06251547     4.68207347     6.55572162    -0.27037397    -0.47429029    -0.17976260
O       2.07511498     6.74641202     1.52464798    -2.61538881    -1.00106967     0.95259690
O      -0.05329355     0.98827746     6.52174564     0.54095054    -0.22849916    -2.13560587
O       1.76981802     3.03795801     1.60531798     1.44129823     0.04373911     0.22140240
