# total energy = -19517.46011993 eV

CRYSTAL
PRIMVEC
        5.93400000     0.00000000     0.00000000
        0.00000000     9.29699974     0.00000000
        0.00000000     0.00000000     4.64899994
PRIMCOORD
23 1
Ti      4.54161099     7.00663800     2.17390698    -0.56559123     1.42962696     0.56061023
Ti      4.44833699     2.31996699     2.38386001     1.53790336     1.03305858     0.07319573
Ti      1.40867100     6.96651901     2.23844501     0.77806547     1.37655912     0.90201454
Ti      1.50033498     2.28881199     2.31208198    -0.93653213     0.48997145    -0.35650981
Ti      3.00764499     4.50734099     0.23624298     0.02269488    -1.31235530    -1.61890676
Ti      3.02222801     9.25720900     4.52549500    -1.87645195    -1.07845451    -0.05039853
Ti      0.06988902     4.74408003     0.07030601    -0.68545533    -2.08911568    -1.49658725
Ti      5.88375298     0.15604500     0.00499803     1.67965372    -0.59725129    -0.64509208
O       4.31468603     5.55687099     1.04460600     0.48603587    -0.04581348    -1.01193053
O       4.34071202     0.83012400     0.89192201     0.77486650     0.87393834     0.41678240
O       1.51102299     5.42986300     1.03301300     0.44316065     1.44857009     0.54727237
O       1.45922198     0.85933898     0.87391601    -0.03119546     1.15117793     0.37091031
O       4.41972300     8.43403098     3.60417000     0.33032106    -0.27889512     0.09186761
O       4.51002302     3.68574098     3.77992601    -1.03848978     0.72188273     0.54916907
O       1.41870198     8.40873398     3.76711098     0.14193343    -0.92429907    -1.15045519
O       1.38222802     3.69894998     3.78064601     0.82499018     0.78200055     0.21894109
O       2.98330099     1.46297401     3.18720002    -0.65175767    -0.68059080     0.47916330
O       5.81985700     6.05751003     3.23766400     0.35852401     0.06694898     0.25982164
O       0.08041801     1.39514899     3.11251602    -1.02274177    -0.51896554     1.09326381
O       2.92141302     7.88246302     1.29728798    -0.12422392    -1.40273450     1.34601517
O       2.99291101     3.41990799     1.64443900    -0.15760817    -1.16393343    -0.43666295
O       0.06974598     7.78291801     1.34512698    -0.69899605     0.93859724    -0.77851850
O       5.82991698     3.23135298     1.34126800     0.41089406    -0.21992325     0.63603382
