# total energy = -19936.55083318 eV

CRYSTAL
PRIMVEC
        5.83566760     0.00000000     0.00000000
        2.66026344     5.61234902     0.00000000
        0.00000000     0.00000000    10.73317183
PRIMCOORD
24 1
Ti      3.69161842     3.32587280     3.98193017     1.01243318    -3.17163870     0.84996254
Ti      4.80431242     2.28647614     6.75124172    -1.01243318     3.17163870    -0.84996254
Ti      6.11668091     2.28647804     1.38461290    -2.50531085    -0.78437470     0.76362641
Ti      2.37925004     3.32587112     9.34855916     2.50531085     0.78437470    -0.76362641
Ti      2.36148684     0.51969838     1.38465592     1.01243318    -3.17163870    -0.84996254
Ti      6.13444404     5.09265074     9.34851614    -1.01243318     3.17163870     0.84996254
Ti      1.04911831     0.51969631     6.75119870     2.50531085     0.78437470     0.76362641
Ti      7.44681263     5.09265279     3.98197324    -2.50531085    -0.78437470    -0.76362641
O       2.78374956     1.97620347     5.47705543     1.54310984     2.04166544    -1.07610477
O       5.71218128     3.63614547     5.25611651    -1.54310984    -2.04166544     1.07610477
O       2.00757697     1.97622614     0.11050404     0.47467981    -1.06295975     1.33314139
O       6.48835395     3.63612290    10.62266761    -0.47467981     1.06295975    -1.33314139
O       4.38204967     0.82997094     0.11046917    -1.54310984    -2.04166544    -1.07610477
O       4.11388118     4.78237807    10.62270242     1.54310984     2.04166544     1.07610477
O       5.15822233     0.82994831     5.47709024    -0.47467981     1.06295975     1.33314139
O       3.33770846     4.78240071     5.25608164     0.47467981    -1.06295975    -1.33314139
O       1.83014628     3.41374886     2.89929749     0.63166295     2.24567870     2.11331877
O       6.66578450     2.19860010     7.83387445    -0.63166295    -2.24567870    -2.11331877
O       4.17198420     2.19854787     2.46732259     1.16728127     1.44311420     0.80430513
O       4.32394664     3.41380107     8.26584911    -1.16728127    -1.44311420    -0.80430513
O       0.50001466     0.60757426     2.46728831     0.63166295     2.24567870    -2.11331877
O       7.99591612     5.00477470     8.26588340    -0.63166295    -2.24567870     2.11331877
O       2.99381502     0.60762648     7.83390862    -1.16728127    -1.44311420     0.80430513
O       5.50211582     5.00472247     2.89926320     1.16728127     1.44311420    -0.80430513
