# total energy = -19958.25917531 eV

CRYSTAL
PRIMVEC
        5.93400000     0.00000000     0.00000000
        0.00000000     9.29699974     0.00000000
        0.00000000     0.00000000     4.64899994
PRIMCOORD
24 1
Ti      4.45348001     6.62654898     2.27566501     0.57543367     2.51348464     1.34837853
Ti      4.45379799     2.48544701     2.29163801     0.66488212    -2.18967465     1.66441376
Ti      1.45925802     6.77156101     1.98575398    -0.22720616     2.45271583     1.63612210
Ti      1.55778998     2.48180198     2.29559499    -0.37414476    -1.74841482     1.47731529
Ti      3.00843903     4.69796397     4.49975698    -1.90701415    -1.43174452    -0.16117455
Ti      2.99724798     9.23590501     0.26350799    -1.12321203    -1.87608582    -1.65970941
Ti      5.87852101     4.61925098     0.06337702     1.53056157    -0.19071370    -1.75710798
Ti      5.88511000     0.01853099     0.25440101     1.18527977    -1.30219687    -2.49772275
O       4.39241401     5.71426502     0.64486900     0.21173248     0.27661172     0.59075051
O       4.50403200     1.01365998     1.11976700    -0.88509154    -1.00105527    -1.90725737
O       1.42922398     5.75637399     0.48124702     0.52595226     0.00478534     1.29334533
O       1.47039598     0.91011401     1.13304797     0.63179561     0.09060545    -0.97409390
O       4.50621501     8.31594301     3.93722998    -0.87464643     1.23223147     1.05997855
O       4.47133699     3.87686303     3.67170699    -0.05930354    -0.13210950     0.33657476
O       1.43713598     8.24460098     3.96331000     1.22920683     2.14082676     1.18863223
O       1.37031602     3.73201298     3.76903798     0.76913885    -0.00097959     0.00302696
O       2.88515200     5.81539699     2.99360698     0.22340452     0.63151125    -0.43351515
O       3.03171002     1.58764700     3.14147001    -0.73011772     0.28809067     0.75356773
O       0.08639798     5.97097801     3.07052501    -0.52913323    -0.56325923    -0.67050024
O       5.87715499     1.53693399     3.25427498     0.07441444     0.79890196    -0.06044537
O       3.08207399     7.86546400     1.65128300    -0.62544062     0.55463267    -0.87082551
O       2.94080700     3.58833299     1.48101800    -0.10743513    -0.83644265    -0.68858282
O       5.90198298     7.84336201     1.56406999    -0.31122650     0.22711360    -0.21314762
O       0.00182000     3.35710000     1.34086202     0.13217018     0.06116528     0.54197615
