# total energy = -19519.10887134 eV

CRYSTAL
PRIMVEC
        7.60600008     0.00000000     0.00000000
        0.00000000     7.60600008     0.00000000
       -1.89786986    -1.89786986     4.85670466
PRIMCOORD
23 1
Ti      3.75162101     6.67610199     1.17061400     0.97216583    -1.40350609    -0.20370884
Ti      3.76432301     2.69979401     1.23891401     0.76369737     1.60215319     0.46216445
Ti     -0.03645200     6.69238900     1.15891199    -0.54461359    -1.13892328     0.07035724
Ti      0.05847202     2.82855501     1.22959298    -1.11607490     1.27308580    -0.42960167
Ti      5.65262423     2.87300024     3.60899080    -0.76069843     0.06005585     0.80714312
Ti      5.65090822    -0.84960275     3.60243684     0.51160652    -0.08054112    -0.17199015
Ti      1.94177025     2.81036422     3.70236683     0.53634697    -0.04519770     1.15234650
Ti      1.88737321    -0.97910878     3.56003482    -0.13437824     0.16888143     0.14314185
O       3.82218499     4.71497602     0.84837702    -0.72061183     0.23077588    -0.09897954
O       3.99837202     0.92230599     0.77578798    -0.68598626    -0.06935373    -0.15848389
O       0.04097202     4.72706602     0.86998100     0.27345749     0.65965070     0.04982774
O      -0.05520800     0.99665503     0.70792301     0.05560475    -0.84214253     0.27748950
O       5.63804223     4.70735221     4.07744279     0.55524819     1.07283150    -0.39921148
O       5.81901423     1.02985524     4.11455182     0.24403506    -0.97857868    -1.28436704
O       1.97324725     4.72895921     3.98725882    -0.77325339     0.53535761     0.32763503
O       1.94442725     0.90144122     4.12322583    -0.86650374    -0.02927536     0.01315685
O       3.76401323     2.83606223     3.49117483     0.80865467    -0.46680941    -1.80248437
O       3.80177621    -0.77642579     3.15324282     0.07971246    -0.35742924     0.19554070
O       0.02266424    -0.93962480     3.18362083    -0.29488507     0.05491956     0.27609544
O       5.68373398     6.65282401     1.59531298     0.52883241     0.00074716     0.28293252
O       5.72357399     2.84707399     1.68017899     0.27877376    -0.04130453     0.51370763
O       1.90662399     6.73320503     1.57440397    -0.18411934     0.04775235     0.07751365
O       1.85912700     2.76683098     1.73543700     0.47299034    -0.25314911    -0.10022550
