# total energy = -19517.40907284 eV

CRYSTAL
PRIMVEC
        5.93400000     0.00000000     0.00000000
        0.00000000     9.29699974     0.00000000
        0.00000000     0.00000000     4.64899994
PRIMCOORD
23 1
Ti      4.57073098     7.08953198     2.27235601     0.55056235    -0.43524165     0.26196311
Ti      4.36903899     2.29253999     2.31020499     1.03624572    -1.16361076    -0.20272976
Ti      1.62848203     7.01788799     2.30518902    -1.01340094    -0.08389796    -0.55512118
Ti      1.37801598     2.32985398     2.35454602    -0.57677090    -0.44163881     0.20297221
Ti      2.96194001     4.55626502     0.16874198     0.02393801     1.01243087     0.32656982
Ti      2.98199699     0.01399399     4.55256702    -0.13350587     0.05940845     0.21857342
Ti      5.87235900     4.60747699     4.53257100     1.18817843     1.47219365     1.08249165
Ti      0.03056602     0.00778102     0.04140600    -0.61855109     0.01687956    -0.26882025
O       4.58693798     5.49016401     1.02535601    -1.19793757     0.55711635    -0.30585315
O       4.34070001     0.94943500     0.92115598     0.06422027    -0.11198393    -0.00105878
O       1.58664199     5.55473401     1.03174599     0.20976224     0.40754854    -0.17529197
O       1.38989802     0.93927200     0.75566702     1.30414448     0.78354115     1.54748432
O       4.45093800     8.52557801     3.69346802    -0.14213886    -1.71745615    -0.40043018
O       4.50760500     3.69092602     3.92441299    -1.84100388    -0.90461830    -2.07025843
O       1.42116800     8.40175402     3.70252902     0.34713814    -0.66842356     0.16456840
O       1.52677998     3.83078402     3.71087298     0.44983652    -0.50196128    -0.43179045
O       2.89341801     1.34664497     3.15289499    -0.06569505     0.59956760    -0.01631160
O       5.83097099     5.98283200     3.24734498     0.42732702     0.76394831     0.10975786
O       5.73142502     1.38024000     3.29755200     1.27684039     0.96883805    -0.87084556
O       3.03675900     7.98258399     1.43193898    -0.60635120    -1.24206954     0.34911326
O       2.91957699     3.27744998     1.38951701    -0.35467250    -1.22988662     1.40726324
O       0.08600501     7.87808599     1.48322398     0.01211401     0.56779209    -0.74896880
O       0.01235301     3.00800103     1.34292999    -0.34027972     1.29152396     0.37672280
