# total energy = -19941.60090081 eV

CRYSTAL
PRIMVEC
        5.87777384     0.00000000     0.00000000
        1.23878883     6.13184675     0.00000000
        0.00000000     0.00000000    10.57344286
PRIMCOORD
24 1
Ti      2.86451533     3.63372671     3.92267202     0.07035981    -1.78504302     0.83470818
Ti      4.25204705     2.49812019     6.65077126    -0.07035981     1.78504302    -0.83470818
Ti      5.57388418     2.49812239     1.36400737    -0.29660514    -0.30345045    -0.11193405
Ti      1.54267822     3.63372475     9.20943603     0.29660514     0.30345045     0.11193405
Ti      2.24512106     0.56780356     1.36404977     0.07035981    -1.78504302    -0.83470818
Ti      4.87144134     5.56404352     9.20939363    -0.07035981     1.78504302     0.83470818
Ti      0.92328385     0.56780119     6.65072886     0.29660514     0.30345045    -0.11193405
Ti      6.19327854     5.56404589     3.92271442    -0.29660514    -0.30345045     0.11193405
O       2.29655103     2.15912751     5.39554712     1.59162195     1.80069719    -0.54105672
O       4.82001135     3.97271939     5.17789616    -1.59162195    -1.80069719     0.54105672
O       1.51477231     2.15915220     0.10885953    -0.72649375     0.23055091     0.75514099
O       5.60179013     3.97269475    10.46458345     0.72649375    -0.23055091    -0.75514099
O       4.20061706     0.90679606     0.10882521    -1.59162195    -1.80069719    -0.54105672
O       2.91594532     5.22505084    10.46461777     1.59162195     1.80069719     0.54105672
O       4.98239585     0.90677142     5.39558145     0.72649375    -0.23055091     0.75514099
O       2.13416648     5.22507554     5.17786184    -0.72649375     0.23055091    -0.75514099
O       0.96705464     3.72973672     2.85615081     0.36970035     1.06490350     1.19855592
O       6.14950773     2.40211018     7.71729248    -0.36970035    -1.06490350    -1.19855592
O       3.63772725     2.40205291     2.43060447     0.74176508     1.20255527     0.38761734
O       3.47883513     3.72979399     8.14283863    -0.74176508    -1.20255527    -0.38761734
O       0.34766035     0.66381339     2.43057069     0.36970035     1.06490350    -1.19855592
O       6.76890203     5.46803357     8.14287242    -0.36970035    -1.06490350     1.19855592
O       2.85944084     0.66387060     7.71732620    -0.74176508    -1.20255527     0.38761734
O       4.25712154     5.46797630     2.85611702     0.74176508     1.20255527    -0.38761734
