# total energy = -19073.97396067 eV

CRYSTAL
PRIMVEC
        7.60600008     0.00000000     0.00000000
        0.00000000     7.60600008     0.00000000
       -1.89786986    -1.89786986     4.85670466
PRIMCOORD
22 1
Ti      3.67536799     6.68132301     1.10475303     0.63561139     0.55817668     0.09503135
Ti      3.94685598     2.90849999     1.12037402    -0.12837883    -0.52758388     1.51295619
Ti     -0.02178400     6.63663102     1.26800400    -0.47800142    -0.69951618    -0.23962305
Ti      0.11969899     2.87506302     0.97957498     1.01576893     0.19222937     1.36175547
Ti      5.85629223     3.00256024     3.48839083    -0.87534448    -0.34484265     0.93004935
Ti      5.92664423    -1.07437280     3.81363079    -1.24696853    -0.19595773    -1.03530752
Ti      2.04643024     2.71812625     3.55527180     1.13590583    -0.01465349    -0.95926866
Ti      1.23904525    -0.84412376     3.92944880     1.72287938    -1.41524703    -0.89865128
O       3.80011899     4.68582502     0.54250902     0.25425597     1.08656300     1.00019190
O       3.45702300     0.90930898     1.23797102     0.75353457     0.09709055    -1.84809884
O       0.13592098     4.68139898     0.55284899     0.62281269    -0.01483630     0.97653542
O      -0.14263798     0.85191298     0.91570900     0.70836001    -0.39596289     0.28422682
O       5.23101020     4.60230122     4.24757079     1.64758126     2.75883740    -1.70766488
O       5.42140722     0.71303422     4.07250679     1.14469283     0.25303495    -1.65637520
O       2.02847922     5.01991922     4.08420081    -0.92089545     0.06576139     0.65478231
O       2.34507121     0.72193620     4.06344981    -1.35847346     0.42263912    -0.16118123
O       3.98166325     2.92346422     3.16632080    -0.57988579    -0.60587991    -1.13595185
O       0.28622023     2.93770724     3.24123680    -1.98469929    -0.32894835    -0.54630743
O       5.44482802     6.51067901     1.86542500     0.47542003    -0.06436759     0.83674295
O       5.93463703     2.95766801     1.49508798    -1.36799682     0.04440811     1.20703542
O       1.79445799     6.62894203     1.78800399    -0.60455297    -0.50723385     1.12680618
O       2.07214799     3.00605799     1.46788001    -0.57162561    -0.36371096     0.20231658
