# total energy = -4942.48630400 eV

CRYSTAL
PRIMVEC
        5.53738369     0.00000000     0.00000000
       -0.00000723     2.37316459     0.00000000
       -2.76872360    -1.18666815     6.00929680
PRIMCOORD
6 1
Ti     -0.00023661     1.77994714     1.50232415    -0.02651657    -0.02096067    48.33165758
Ti      2.76888918    -0.59345064     4.50697255     0.02651657     0.02096067   -48.33165758
O       0.00005883     0.59327661     0.97886534     0.02483121     0.02060380   -42.16064492
O       2.76859357     0.59321984     5.03043141    -0.02483121    -0.02060380    42.16064492
O      -0.00002315    -0.59331956     3.98351374    -0.00143725     0.00015324    -1.27986169
O       2.76867550     1.77981595     2.02578301     0.00143725    -0.00015324     1.27986169
