# total energy = -4989.02548018 eV

CRYSTAL
PRIMVEC
        4.07063996     0.00000000     0.00000000
        0.20339616     4.06555527     0.00000000
       -2.13705420    -2.03281201     5.19666719
PRIMCOORD
6 1
Ti      0.15238268     3.04932083     1.29916666     0.00032422    -0.00032422     0.00000000
Ti      1.98459872    -1.01657807     3.89750025    -0.00032422     0.00032422     0.00000000
O       0.05089186     1.01638217     0.84649459    -0.00051088    -0.00153392    -0.82650841
O       2.08608937     1.01636049     4.35017237     0.00051088     0.00153392     0.82650841
O      -0.05087179    -1.01636307     3.44482819    -0.00153392    -0.00051088    -0.82650841
O       2.18785301     3.04910567     1.75183883     0.00153392     0.00051088     0.82650841
