# total energy = -4982.81061405 eV

CRYSTAL
PRIMVEC
        4.67787252     0.00000000     0.00000000
       -0.00000759     3.11858132     0.00000000
       -2.33896383    -1.55933825     5.18229663
PRIMCOORD
6 1
Ti     -0.00020105     2.33904928     1.29557389    -0.00438579    -0.01006973    11.12029501
Ti      2.33910220    -0.77980653     3.88672204     0.00438579     0.01006973   -11.12029501
O       0.00004923     0.77963686     0.84415365     0.00376435     0.00445032    -4.86999824
O       2.33885182     0.77960583     4.33814233    -0.00376435    -0.00445032     4.86999824
O      -0.00002005    -0.77963973     3.43530185    -0.00257702    -0.00018409    -1.70850151
O       2.33892104     2.33888237     1.74699418     0.00257702     0.00018409     1.70850151
