# total energy = -19515.99788426 eV

CRYSTAL
PRIMVEC
        5.17600016     0.00000000     0.00000000
        0.00000000     5.50899976     0.00000000
        0.00000000     0.00000000     9.26300011
PRIMCOORD
23 1
Ti      2.00983599     3.23169600     3.34884901    -1.25298491    -1.67948660     2.11315191
Ti      3.27831799     2.35188902     5.96087803     0.66067348     1.31458522    -2.58521562
Ti      4.22152501     2.17679602     1.42187001     1.66527508    -1.42229314     1.17877128
Ti      0.89659099     3.39583403     7.79230101    -2.02720864     0.85364976     0.03395760
Ti      1.95708999     0.00602500     1.47020702    -1.60218739     2.70364787    -0.16605245
Ti      3.21650999     5.24923400     7.96468902     1.65675007     0.22383518     0.71222027
Ti      0.75383998     0.64864801     5.87168398    -0.95536418    -0.94659389    -3.08534756
Ti      4.45915602     4.85845200     3.42648699     2.81635402     1.32755670     2.10250728
O       1.72572200     2.04252301     4.89306200    -0.58780762    -0.48870236    -0.23476880
O       3.59454998     3.50677101     4.50997201     0.60613008     0.77195473    -0.67292608
O       0.21956702     2.71795802     0.07788500    -0.51883081     0.01843482    -0.67453199
O       3.26799099     0.85503201     0.32377599     1.16823592     0.58768575    -1.15349115
O       1.64788500     4.94685302     8.95909001    -1.31329170    -2.00593044     0.07381357
O       4.26471301     0.66444998     4.74412300    -0.01967949     0.44218363     0.30954834
O       1.06164699     4.85195699     4.24864402     0.75879659    -0.20060680     0.28982103
O       0.32417398     3.17818401     2.61793802    -0.75075135     0.48984778    -0.71964561
O       5.04903699     2.09421399     6.66434600    -0.11518726     0.39130636     1.30076399
O       2.60563301     1.54821901     2.45550600     0.03374626     0.66374133     0.06641856
O       2.47104201     3.88353002     6.83502201     0.31735601    -1.29050066     0.58908726
O       0.05403900     0.63909297     2.01381202     0.60317177    -0.70017310    -0.36958722
O       4.91589298     4.75726098     7.01348900     0.78476397     0.03778340     1.28024401
O       2.52411299     0.92219100     6.87637102    -1.32647478    -0.17340349     0.65176538
O       3.18545400     4.23779101     2.09881000    -0.60148538    -0.91852180    -1.04050321
