# total energy = -4989.19403383 eV

CRYSTAL
PRIMVEC
        3.14580404     0.00000000     0.00000000
        0.24629650     4.92284588     0.00000000
       -0.00000136    -0.00006397     4.93054545
PRIMCOORD
6 1
Ti      1.69604948     2.46139079     2.46527261     0.00000000     0.00000000     0.00000000
Ti      0.00000000     0.00000000     0.00000000     0.00000000     0.00000000     0.00000000
O       1.62090123     0.95937757     0.96089062     0.07166644    -0.49324396    -0.50341293
O       1.77119767     3.96340402     3.96965455    -0.07166644     0.49324396     0.50341293
O       0.07514757     1.50198729     3.42616423    -0.07207216     0.49261249    -0.50274367
O       0.17114746     3.42079451     1.50438094     0.07207216    -0.49261249     0.50274367
