# total energy = -4986.32479062 eV

CRYSTAL
PRIMVEC
        4.41735654     0.00000000     0.00000000
       -0.00000758     3.26500285     0.00000000
       -2.20870531    -1.63254413     5.01503828
PRIMCOORD
6 1
Ti     -0.00019076     2.44887236     1.25375928    -0.00314292    -0.00865716     8.02828211
Ti      2.20883421    -0.81641365     3.76127826     0.00314292     0.00865716    -8.02828211
O       0.00004607     0.81624298     0.81690862     0.00207874     0.00232993    -2.57346825
O       2.20859721     0.81621568     4.19812892    -0.00207874    -0.00232993     2.57346825
O      -0.00001977    -0.81623984     3.32442760    -0.00193938    -0.00003985    -1.13539084
O       2.20866300     2.44869840     1.69060999     0.00193938     0.00003985     1.13539084
