# total energy = -19942.47547698 eV

CRYSTAL
PRIMVEC
        5.80936246     0.00000000     0.00000000
        1.81408819     5.91080055     0.00000000
        0.00000000     0.00000000    10.51911982
PRIMCOORD
24 1
Ti      3.18064143     3.50273496     3.90251843     0.33034086    -2.32447944     0.93625497
Ti      4.44280912     2.40806572     6.61660145    -0.33034086     2.32447944    -0.93625497
Ti      5.74926165     2.40806775     1.35699948    -0.97043908    -0.68324624     0.25614625
Ti      1.87418900     3.50273315     9.16212052     0.97043908     0.68324624    -0.25614625
Ti      2.27359747     0.54733478     1.35704166     0.33034086    -2.32447944    -0.93625497
Ti      5.34985311     5.36346607     9.16207834    -0.33034086     2.32447944     0.93625497
Ti      0.96714492     0.54733258     6.61655928     0.97043908     0.68324624     0.25614625
Ti      6.65630566     5.36346828     3.90256060    -0.97043908    -0.68324624    -0.25614625
O       2.47747116     2.08129340     5.36782633     1.59729509     1.96670053    -0.77767749
O       5.14597940     3.82950734     5.15129355    -1.59729509    -1.96670053     0.77767749
O       1.70479390     2.08131724     0.10830025    -0.33934512    -0.31562000     1.07018378
O       5.91865673     3.82948355    10.41081933     0.33934512     0.31562000    -1.07018378
O       4.23893541     0.87410699     0.10826613    -1.59729509    -1.96670053    -0.77767749
O       3.38451515     5.03669374    10.41085346     1.59729509     1.96670053     0.77767749
O       5.01161274     0.87408320     5.36786046     0.33934512     0.31562000     1.07018378
O       2.61183777     5.03671761     5.15125942    -0.33934512    -0.31562000    -1.07018378
O       1.31449885     3.59528400     2.84147669     0.42286975     1.61264664     1.56671695
O       6.30895171     2.31551673     7.67764319    -0.42286975    -1.61264664    -1.56671695
O       3.82640032     2.31546162     2.41811670     0.96963792     1.35867452     0.52853853
O       3.79705024     3.59533912     8.10100301    -0.96963792    -1.35867452    -0.52853853
O       0.40745481     0.63988366     2.41808310     0.42286975     1.61264664    -1.56671695
O       7.21599570     5.27091708     8.10103661    -0.42286975    -1.61264664     1.56671695
O       2.89000625     0.63993877     7.67767673    -0.96963792    -1.35867452     0.52853853
O       4.73344431     5.27086197     2.84144310     0.96963792     1.35867452    -0.52853853
