# total energy = -19943.68603431 eV

CRYSTAL
PRIMVEC
        4.74911623     0.00000000     0.00000000
        0.75395916     4.99794687     0.00000000
        0.00000000     0.00000000     8.52401252
PRIMCOORD
24 1
Ti      2.16812170     2.96177864     3.16234788     1.81907210    -0.03841332    -0.06590434
Ti      3.33495363     2.03616809     5.36166484    -1.81907210     0.03841332     0.06590434
Ti      4.40296987     2.03616978     1.09962439    -2.69957962    -0.70415985     1.99079949
Ti      1.10010547     2.96177714     7.42438842     2.69957962     0.70415985    -1.99079949
Ti      1.79114222     0.46280529     1.09965858     1.81966808    -0.03871234     0.06326356
Ti      3.71193312     4.53514158     7.42435424    -1.81966808     0.03871234    -0.06326356
Ti      0.72312597     0.46280346     5.36163065     2.69912325     0.70415523     1.99351483
Ti      4.77994937     4.53514341     3.16238206    -2.69912325    -0.70415523    -1.99351483
O       1.76860709     1.75986200     4.34973838    -2.05853960    -1.45587305    -0.59090529
O       3.73446824     3.23808473     4.17427428     2.05853960     1.45587305     0.59090529
O       1.13694548     1.75988220     0.08775948     1.90862906    -1.61967372    -0.29487093
O       4.36612990     3.23806457     8.43625299    -1.90862906     1.61967372     0.29487093
O       3.35748875     0.73911124     0.08773183     2.05849075     1.45577586    -0.59081376
O       2.14558658     4.25883549     8.43628064    -2.05849075    -1.45577586     0.59081376
O       3.98915041     0.73909108     4.34976608    -1.90873447     1.61966061    -0.29520003
O       1.51392487     4.25885570     4.17424664     1.90873447    -1.61966061     0.29520003
O       0.63114707     3.04003460     2.30254848    -1.03448605    -1.06335390    -1.89198116
O       4.87192826     1.95791208     6.22146424     1.03448605     1.06335390     1.89198116
O       2.84246530     1.95786560     1.95948499     0.29089652    -1.91569625    -1.30055471
O       2.66061003     3.04008108     6.56452758    -0.29089652     1.91569625     1.30055471
O       0.25416758     0.54106111     1.95945773    -1.03406851    -1.06334567     1.89137592
O       5.24890775     4.45688557     6.56455479     1.03406851     1.06334567    -1.89137592
O       2.28363054     0.54110759     6.22149140    -0.29082813     1.91555021    -1.30040018
O       3.21944479     4.45683909     2.30252127     0.29082813    -1.91555021     1.30040018
