# total energy = -19073.14149495 eV

CRYSTAL
PRIMVEC
        7.60600008     0.00000000     0.00000000
        0.00000000     7.60600008     0.00000000
       -1.89786986    -1.89786986     4.85670466
PRIMCOORD
22 1
Ti      3.89263600     6.85561002     1.14861102    -0.98431764    -2.21405283    -0.79575749
Ti      3.68265598     2.75710899     1.30970999    -0.03033697     2.24935743    -1.06139086
Ti      0.02186698     6.73561897     0.87880900     0.55503402     0.23485673     1.14800287
Ti     -0.07838401     2.95525100     1.28161401    -2.18789133     0.17803585    -0.15429376
Ti      5.52466325     2.73219522     3.59664483     2.06032060     2.24125100     0.15596523
Ti     -1.27200378    -0.94293078     3.74654784    -1.55932605    -0.49212193    -1.29006563
Ti      1.89424421     2.72168121     3.74134280    -2.28580746    -1.44389068     1.36883372
Ti      1.67821521    -1.03898778     3.60974684     0.10374328     1.12088132    -0.31212973
O       3.86204098     4.57107500     0.85419400    -0.52464588     0.76301140    -0.96540666
O       4.08471999     1.00410499     0.72537400    -1.34088607    -1.61319403     0.20711246
O      -0.18468402     4.94005198     0.76010301    -0.69224279    -1.09460952     0.78374941
O       7.05401000     0.92090500     0.35380198     1.33678054    -0.55525436     1.71303565
O      -1.33116876     4.74832524     3.83277679    -0.35552662     1.67905749     0.81085116
O       5.43395920     1.12104925     4.21136581     0.65871250    -2.77329934    -0.24980333
O       1.88996523     4.64095021     4.02428482    -0.07291677     1.98202174     1.39834177
O       2.29407625     0.77934923     3.88624481    -1.21569053     0.49564151    -0.05626733
O       3.67834821     3.04538322     3.25699379     0.26480007    -0.22369403    -0.37905325
O      -0.04019577     2.61305922     3.51240384    -0.12828858    -0.24509487    -1.65832487
O       5.50745298     6.73178699     2.04487298     0.98373786     0.03468728    -0.18322999
O       5.44659500     2.76716098     1.70438599     3.12370792     0.05424490     0.33653336
O       1.98672201     6.66808802     1.75389301     0.19094922     0.36372716    -0.73265566
O       1.62579402     2.98230402     1.65973502     2.10009095    -0.74156248    -0.08404708
