# total energy = -19049.37656380 eV

CRYSTAL
PRIMVEC
        7.60600008     0.00000000     0.00000000
        0.00000000     7.60600008     0.00000000
       -1.89786986    -1.89786986     4.85670466
PRIMCOORD
22 1
Ti      4.08655703     6.79420101     1.47458998     0.43248928    -3.00759043    -2.84149197
Ti      4.26812700     2.59283798     2.29885398    -3.12206962     4.78131314    -5.65941359
Ti      0.11582399     6.19421799     0.82854901    -2.89309171     3.94134963     1.36493850
Ti      0.24826203     2.54689100     0.03991600    -8.22829421    -8.09747052     7.40125590
Ti     -1.12049780     2.52678925     3.82746084    -7.20278697    24.53420592     9.02162227
Ti     -0.78019576     1.33672422     2.85324780     7.66767242   -20.08094200   -23.06667805
Ti      1.09623624     2.62691424     4.37288182     7.64666804    -0.44078186    -0.71020298
Ti      0.80277623    -0.57661275     4.25031479     4.83674615    -4.40105430    -0.85996182
O       4.05167599     4.56600500     2.02145799    -0.78946523     1.48524560    -0.83483365
O       3.43102902     1.08845802     1.31526900     0.03686295    -4.56984214    -0.63850414
O       0.38710501     4.12141801     0.75114202     1.20941935     3.54063174     0.86851331
O      -0.05472100     0.62157599     0.74239202     0.87766799    -0.05063481     1.83829779
O       5.88541523     4.25898123     3.92167381     0.46608975     0.98860907     0.53446981
O       4.49632220     1.35341924     3.42704580     4.99524572    -3.65475662     4.63323117
O       1.40117023     4.36068222     4.65623380     0.01055027     3.87804802     3.45188391
O       1.61060621     0.85039123     4.78808180    -0.73706896     2.08943810    -0.69166969
O       2.60978324     2.52876123     3.26504681    -1.19918147     0.90748225     1.03603206
O       0.46674322     3.23107321     2.67935280    -2.68528376    -3.52077690     1.80552444
O       5.83857802     6.26970502     0.64709398    -1.14875749     0.82504443     2.70331157
O       5.80918900     2.39192800     1.14884799     0.98212115     0.21732746     2.44467084
O       1.42501523    -0.90243576     2.47819284    -0.32866450    -0.30486507     0.78059775
O      -0.87777377    -0.49919878     3.70207880    -0.82686914     0.94001932    -2.58159345
