# total energy = -4978.15003878 eV

CRYSTAL
PRIMVEC
        4.24995941     0.00000000     0.00000000
        0.00000000     2.21968320     0.00000000
        0.00000000    -0.00011708     5.91915435
PRIMCOORD
6 1
Ti      2.12497950     1.10978301     2.95957718     0.00000000     0.00000000     0.00000000
Ti      0.00000000     0.00000000     0.00000000     0.00000000     0.00000000     0.00000000
O       2.12497950     0.43256074     1.15355602    -0.00000000    -0.70510242     0.24163879
O       2.12497950     1.78700533     4.76559839    -0.00000000     0.70510242    -0.24163879
O       0.00000000     0.67717629     4.11313440     0.00000000     0.70511682     0.24190336
O       0.00000000     1.54238979     1.80601996     0.00000000    -0.70511682    -0.24190336
