# total energy = -19517.46390068 eV

CRYSTAL
PRIMVEC
        5.93400000     0.00000000     0.00000000
        0.00000000     9.29699974     0.00000000
        0.00000000     0.00000000     4.64899994
PRIMCOORD
23 1
Ti      4.52337602     7.11659802     2.27970300     0.34933206    -0.71293478    -0.17340349
Ti      4.44249101     2.26111502     2.31032601     1.60223778     0.59586906    -0.46667777
Ti      1.42088600     7.03685201     2.21949401     0.00038849    -0.84946117     0.42441061
Ti      1.48149902     2.29468999     2.43968202    -0.92930193    -0.35176098    -0.69646608
Ti      2.93252500     4.44851299     0.18636702     0.44841341     1.52518745    -0.14357534
Ti      2.99170798     9.29681400     0.00328698     0.04731654    -0.55559632    -0.35778302
Ti      5.89225099     4.54641401     4.57998301    -0.58923998     0.87939551     0.57046475
Ti      0.05721401     0.00128500     0.02944898    -0.29303105     0.33270010    -1.07172284
O       4.45984199     5.68822098     0.98536101    -0.91579695    -1.18742715    -1.10980012
O       4.49430402     0.87722200     0.89877099    -0.53334752     0.27946256     0.23562807
O       1.43571900     5.49836600     0.91821598     1.07850387     0.69302414    -0.06662554
O       1.49809000     0.85560600     0.82536501     0.35597399     1.15885885     1.25151707
O       4.47479897     8.48112098     3.64035202    -0.36189679    -0.22161786     0.68217229
O       4.38264302     3.62743300     3.70568202    -0.27804974     1.87530266     0.49042937
O       1.43830800     8.56548602     3.57480902     0.95938925    -0.92773253     0.59903949
O       1.47380002     3.64715898     3.70352102     0.57584093     1.38189159     0.29236925
O       3.03127101     1.50447003     3.17537799    -1.24160417    -1.32650538     0.96548173
O       0.04718398     6.16514801     3.25045099     0.08232238    -0.36150649    -0.00290895
O       5.90944798     1.56560799     3.32844701     0.13188581    -0.67377120    -0.87410881
O       2.99236802     7.91180998     1.44986798    -0.32162250    -0.15166840    -0.48837891
O       2.91052298     3.08437300     1.26817799     0.02491811    -0.29121071     1.06699587
O       0.07292798     8.00045600     1.51012100    -0.62777544     0.26004970    -1.45045008
O       5.85306800     3.39444298     1.39826399     0.43514317    -1.37054865     0.32339245
