# total energy = -19073.33745006 eV

CRYSTAL
PRIMVEC
        5.93400000     0.00000000     0.00000000
        0.00000000     9.29699974     0.00000000
        0.00000000     0.00000000     4.64899994
PRIMCOORD
22 1
Ti      4.55208499     6.79499002     2.44610797    -2.31211988    -1.10503252     0.52318369
Ti      4.28950301     2.50253399     2.17772599     0.34163186    -1.41994598    -0.87080931
Ti      1.66131398     7.31956099     2.51269202     0.82303691    -0.85272673    -0.21523664
Ti      1.52984302     2.41460102     2.12177301     0.65552305    -0.25580866    -0.36523640
Ti      2.99832100     4.63827299     0.03138000    -0.50881585     1.18646222    -1.27711498
Ti      2.98407200     0.03366901     0.05880398     0.76860766     1.81630945     0.73364605
Ti      5.81256801     4.57684102     4.25092101     1.32374427    -0.00566748     1.74051973
Ti      5.88552599     8.79347198     0.20232499    -1.86462590     3.43122406     0.19782281
O       4.42226702     5.35479799     0.92266599     0.67570853     0.91181893     1.30758642
O       4.69431599     0.94850302     0.98269200    -0.81472530    -1.40215471    -0.57164335
O       1.46143400     0.73157199     1.21345302    -0.09440657    -0.57024904    -0.79186150
O       4.35532001     8.32884398     3.80053900     0.52446359     0.81308751    -0.12231436
O       4.27236698     4.15251802     3.33846100    -0.11168002    -1.27425026    -0.94262513
O       1.39556201     8.64481000     3.74802800     0.95773731     0.70063770    -0.60569042
O       1.48796800     3.66573702     3.63761199    -1.19914085     1.03772513     0.02267997
O       2.78854498     6.35780600     3.59759301    -0.18889079    -1.17351208    -0.74428785
O       2.96667398     1.53311402     3.23043798     0.91043928    -0.34679027     0.58608035
O       0.02963599     6.38860300     3.64496501     1.11598877    -1.42864403    -0.01646638
O       3.16879799     7.78685398     1.43569799    -1.01292863     0.28433892     0.11272158
O       2.96494902     3.05290600     1.00332001    -0.63398182    -0.27734037     1.32836685
O       5.90620100     7.67813398     1.55102498     0.88114463    -0.73847844     0.18649632
O       5.93287301     3.12233501     1.35854998    -0.23670999     0.66899718    -0.21581745
