# total energy = -19928.92868371 eV

CRYSTAL
PRIMVEC
        6.46710294     0.00000000     0.00000000
        0.00003219     6.22743368     0.00000000
        0.00000000     0.00000000    11.05114384
PRIMCOORD
24 1
Ti      2.34403288     3.69037137     4.09989564     0.19526893    -0.84244849     0.70065030
Ti      4.12310225     2.53706218     6.95124858    -0.19526893     0.84244849    -0.70065030
Ti      5.57747164     2.53706432     1.42563232     0.19548773     0.84247497    -0.70077859
Ti      0.88966355     3.69036955     9.62551208    -0.19548773    -0.84247497     0.70077859
Ti      2.34401685     0.57665466     1.42567666     0.19526893    -0.84244849    -0.70065030
Ti      4.12311835     5.65077908     9.62546775    -0.19526893     0.84244849     0.70065030
Ti      0.88964746     0.57665239     6.95120431    -0.19548773    -0.84247497    -0.70077859
Ti      5.57748767     5.65078141     4.09993997     0.19548773     0.84247497     0.70077859
O       2.04689027     2.19278519     5.63931426     1.15701896     1.31099493    -0.39157556
O       4.42024493     4.03464837     5.41182996    -1.15701896    -1.31099493     0.39157556
O       1.18672177     2.19281037     0.11377773    -1.15713106     1.31124150    -0.39226564
O       5.28041349     4.03462324    10.93736624     1.15713106    -1.31124150     0.39226564
O       4.42022883     0.92093146     0.11374189    -1.15701896    -1.31099493    -0.39157556
O       2.04690636     5.30650209    10.93740207     1.15701896     1.31099493     0.39157556
O       5.28039739     0.92090634     5.63935015     1.15713106    -1.31124150    -0.39226564
O       1.18673767     5.30652727     5.41179413    -1.15713106     1.31124150     0.39226564
O       0.23498449     3.78787820     2.98518973    -0.14680130    -0.12752162     0.13889464
O       6.23215070     2.43955542     8.06595449     0.14680130     0.12752162    -0.13889464
O       3.46854169     2.43949746     2.54041752    -0.14646552     0.12773168    -0.13905894
O       2.99859344     3.78793616     8.51072657     0.14646552    -0.12773168     0.13905894
O       0.23496840     0.67416130     2.54038219    -0.14680130    -0.12752162    -0.13889464
O       6.23216673     5.55327232     8.51076184     0.14680130     0.12752162     0.13889464
O       2.99857741     0.67421926     8.06598976     0.14646552    -0.12773168    -0.13905894
O       3.46855779     5.55321429     2.98515446    -0.14646552     0.12773168     0.13905894
