# total energy = -4967.60396807 eV

CRYSTAL
PRIMVEC
        4.10740026     0.00000000     0.00000000
       -0.00000667     2.73826652     0.00000000
       -2.05372433    -1.36917505     4.55030923
PRIMCOORD
6 1
Ti     -0.00017653     2.05379937     1.13757707    -0.01171935    -0.02133836    24.00385578
Ti      2.05384583    -0.68470818     3.41273154     0.01171935     0.02133836   -24.00385578
O       0.00004322     0.68455919     0.74120808     0.01136634     0.01516926   -12.35822533
O       2.05362599     0.68453195     3.80910058    -0.01136634    -0.01516926    12.35822533
O      -0.00001760    -0.68456172     3.01636260    -0.00063198    -0.00015864     1.82148997
O       2.05368676     2.05365281     1.53394611     0.00063198     0.00015864    -1.82148997
