# total energy = -19959.42247256 eV

CRYSTAL
PRIMVEC
        7.60600008     0.00000000     0.00000000
        0.00000000     7.60600008     0.00000000
       -1.89786986    -1.89786986     4.85670466
PRIMCOORD
24 1
Ti      3.68913798     6.77556498     1.30736102     1.87246519     0.09194860     0.37535189
Ti      3.77513902     3.00463498     1.31856302     0.05628353    -0.35880478    -1.13671315
Ti      0.04586898     6.64506801     1.15784702    -0.93048824    -0.29762510     0.67181588
Ti     -0.01556998     2.81304302     1.22195399     0.05352782    -0.39742893    -1.35734603
Ti      5.78550424     2.72006923     3.59361482    -2.87556964    -0.12133889     0.49064843
Ti      5.81911520    -1.04231276     3.57604883    -0.82649350    -0.51491631    -0.30107501
Ti      1.72947222     2.92655022     3.60491180     1.85371259    -0.89301131     1.20601804
Ti      1.87298324    -0.90611079     3.69474281     0.76503640     0.66936639     0.85046751
O       3.79153801     4.84639301     0.84774100     0.24395664     0.15376462    -0.09605542
O       3.66053801     1.02443397     0.86945902     0.26806537    -0.65064978    -0.70487102
O       0.21282900     4.74473700     0.89380101    -1.37296934    -0.82022772    -1.73727345
O       0.12569198     0.90946402     0.73828497     0.05506791    -0.38266771     0.07287538
O       5.91292520     4.57832324     3.75115480    -0.88830696     0.46961654     1.77196536
O       5.85001222     0.73209720     3.74055580    -0.30550965     3.54926988     2.48288619
O       1.78438923     4.85556122     4.02162883     0.25005710    -1.28526204     0.56923731
O       1.65350920     1.05029323     4.21612179     0.63456109    -0.39443231    -0.85407785
O       3.74321323     2.53827520     3.11085382     0.15940614     1.03751919     1.37081990
O       3.89783125    -0.88277280     3.34376082    -2.33308467    -0.36154146    -0.89785964
O      -0.09986876     2.65090020     3.27367282     2.82383516     0.25744363    -1.22214323
O       0.08207423    -0.94414678     3.13986782     0.35044535    -0.11331653    -0.39286317
O       5.72811301     6.75463401     1.70292901     0.65249146    -0.64949715    -2.11415772
O       5.78161500     2.78063198     1.53630999    -1.02249391     0.39368335     0.26710609
O       1.92180000     6.56009702     1.66283902    -0.05887983     0.62060848     0.07545676
O       1.80017401     2.94478800     1.67540698     0.57488422    -0.00250091     0.60978722
