# total energy = -19958.70699108 eV

CRYSTAL
PRIMVEC
        5.93400000     0.00000000     0.00000000
        0.00000000     9.29699974     0.00000000
        0.00000000     0.00000000     4.64899994
PRIMCOORD
24 1
Ti      4.50740698     6.96873700     2.10127602     0.91322250     0.75295504     1.26467726
Ti      4.42109801     2.53271101     2.43074702    -0.93125648    -0.39588267    -0.02632631
Ti      1.50589700     6.77484403     2.37202199    -1.35808753     1.16460166     0.93626525
Ti      1.46215098     2.36331698     2.44442900     1.12376790    -0.84659825    -0.87837710
Ti      2.95537498     4.88040402     0.04217199     0.94752077    -1.45526498    -0.20776552
Ti      2.91516503     9.07282100     0.05840101    -0.05948944     1.69625920    -0.40480055
Ti      0.10642601     4.60917798     4.57010200    -1.36279522    -0.77544397     0.03132839
Ti      5.87698401     9.28125000     4.62789498    -0.31179574     0.45776992     0.95363100
O       4.46231801     5.60606902     0.81518200    -0.05076799     0.42538275     0.47380358
O       4.52557798     0.64785599     1.06374100    -0.98223968     1.20903883    -0.67865013
O       1.39059198     5.72928101     0.67194102     0.69254438     0.35724155     0.83862963
O       1.40547001     0.65780500     1.00332001     1.35095966     1.00470804    -0.44147915
O       4.55862901     8.30933301     3.71889298    -1.20247917    -0.01262386    -0.19942126
O       4.42584600     4.04127199     3.76421098    -1.02531441    -3.20462185    -1.57525918
O       1.44123303     8.17122298     3.71010499     0.54155037     0.80749716     0.22283245
O       1.51672101     3.81606400     3.69927701     0.95504768     0.12093445     0.33994573
O       3.08043301     6.15558398     3.18811899    -1.03501262    -0.94727446     0.17316746
O       2.94538401     1.54330402     3.41041302     0.78058978     0.18127364    -1.01007111
O       5.87014498     5.71247201     2.98967101     1.10388813     2.82994128    -0.73115979
O       5.86166502     1.72207798     3.33982098    -0.28415534    -1.53673607     0.68508997
O       2.89097300     7.79731301     1.36572499     0.44713275    -0.65129924     0.25543817
O       2.86445598     3.23750800     1.33053602     1.16329014     0.22548917     0.73850518
O       0.01420502     7.90231998     1.47731598     0.40598814    -1.33795656     0.01853252
O       0.16187400     3.33383700     1.46456001    -1.82210832    -0.06939076    -0.77853650
