# total energy = -19936.66996753 eV

CRYSTAL
PRIMVEC
        4.70742064     0.00000000     0.00000000
        0.99212733     4.91090381     0.00000000
        0.00000000     0.00000000     8.46811132
PRIMCOORD
24 1
Ti      2.29414723     2.91019705     3.14160901     2.62960702    -0.49251916     0.17174230
Ti      3.40540051     2.00070688     5.32650265    -2.62960702     0.49251916    -0.17174230
Ti      4.46403998     2.00070864     1.09241298    -4.21604536    -0.28452327     2.47590976
Ti      1.23550778     2.91019548     7.37569877     4.21604536     0.28452327    -2.47590976
Ti      1.79808368     0.45474533     1.09244694     2.62938719    -0.49266597    -0.17032768
Ti      3.90146408     4.45615875     7.37566481    -2.62938719     0.49266597     0.17032768
Ti      0.73944415     0.45474343     5.32646869     4.21610398     0.28406381     2.47120746
Ti      4.96010361     4.45616065     3.14164296    -4.21610398    -0.28406381    -2.47120746
O       1.83927317     1.72921274     4.32121252    -2.45999231    -1.60637391    -0.76900593
O       3.86027457     3.18169119     4.14689914     2.45999231     1.60637391     0.76900593
O       1.21315835     1.72923252     0.08718396     2.14443813    -1.61198766    -0.60793911
O       4.48638944     3.18167146     8.38092745    -2.14443813     1.61198766     0.60793911
O       3.36421101     0.72623933     0.08715647     2.45979022     1.60632943    -0.76900567
O       2.33533674     4.18466461     8.38095494    -2.45979022    -1.60632943     0.76900567
O       3.99032588     0.72621959     4.32124001    -2.14455691     1.61213602    -0.60815328
O       1.70922182     4.18468439     4.14687165     2.14455691    -1.61213602     0.60815328
O       0.77449951     2.98709003     2.28744821    -1.10887478    -1.86278087    -2.65486760
O       4.92504823     1.92381391     6.18066344     1.10887478     1.86278087     2.65486760
O       2.91340102     1.92376804     1.94663455     0.71677960    -2.74383397    -2.19784176
O       2.78614672     2.98713590     6.52147696    -0.71677960     2.74383397     2.19784176
O       0.27843595     0.53163816     1.94660750    -1.10888995    -1.86280196     2.65451356
O       5.42111180     4.37926582     6.52150402     1.10888995     1.86280196    -2.65451356
O       2.29008315     0.53168398     6.18069045    -0.71678783     2.74377844    -2.19790475
O       3.40946460     4.37921995     2.28742115     0.71678783    -2.74377844     2.19790475
