# total energy = -39032.18907747 eV

CRYSTAL
PRIMVEC
        5.93200024     0.00000000     0.00000000
        0.00000000     9.29399984     0.00000000
        0.00000000     0.00000000     9.29399984
PRIMCOORD
46 1
Ti      4.40725802     6.90365101     6.85676903     0.24578521     0.96231670     2.81016486
Ti      4.36799301     6.80593700     2.29025199     3.26311396    -0.94610692     0.78182391
Ti      4.42695500     2.32756899     7.15645200     0.62766642    -1.65999018    -0.38844370
Ti      4.42673597     2.65377501     2.01629899     0.90884211    -0.87135644     1.08924029
Ti      1.47777102     7.09557598     6.97760998    -0.37830995    -0.49211730     1.31645107
Ti      1.57335499     7.14376100     2.21062500    -2.81700657    -1.29413569    -0.55275885
Ti      1.50034101     2.30917198     6.70750400    -1.05602779    -0.98210212     2.17323912
Ti      1.45376400     2.03163503     2.68045999    -0.14118987     0.99951878    -2.12915651
Ti      2.98672799     4.65507199     4.74002700    -0.64566389     0.30047568    -1.32207536
Ti      2.93169700     4.86138000     9.11815202    -1.77493010    -0.55189727     1.18079756
Ti      2.98380000     9.23217601     4.58432401     0.08057789     0.62039662     0.57026935
Ti      3.01638102     0.12502903     0.01831202    -0.91684184     0.05505917     0.79901560
Ti      0.04989798     4.58385299     4.73786701     0.53824085     1.51847635    -1.89887069
Ti      5.93016299     4.53203500     9.20066498     1.70342101     1.00636512     0.28839509
Ti      5.82361199     9.07813801     4.89972000     0.09601146     2.05004107    -2.37812475
Ti      5.91273798     9.23630899     9.18074898     0.50387290    -0.45846772     1.05545367
O       4.36014002     5.62881300     5.68545100     0.77832438    -1.43086443    -1.94631887
O       4.46474799     5.42162498     0.79421700    -0.51346903    -0.18628009     1.20317491
O       4.32331500     0.82195901     5.72171102     0.75156176    -0.02408482    -1.67328021
O       4.67323198     1.05545900     1.00160802    -1.46676193     0.50850243    -0.18853624
O       1.56385901     5.84611499     5.58917101    -0.22340144    -2.14220872    -1.01066478
O       1.40522601     5.66007399     0.93288298     1.00520941    -1.03660593    -1.47611921
O       1.48692600     0.76362500     5.64297601    -0.83161874     0.79875180    -1.23470385
O       1.61078703     0.69487598     1.20845600    -0.47777979     1.13604004     0.38059103
O       4.34019502     8.55530200     8.41691897     1.24995409    -0.78409728    -0.37097998
O       4.38852398     8.31694898     3.69595600     0.11926966     0.67583374     0.97898697
O       4.42305999     3.92699701     8.13259098    -0.27707581    -1.65229049     0.84304293
O       4.53799999     3.94164501     3.79962199    -0.60276733    -1.07995963    -0.55503273
O       1.41848899     8.12700297     8.62046102     1.07803207     1.75004181    -0.97123355
O       1.35882801     8.26096398     3.84450400     0.82027632     0.81767384    -0.55305632
O       1.53903599     3.70921502     8.35002102     0.46750129     0.69403048     0.35280536
O       1.55535597     3.83223698     3.76450298    -0.85539246    -1.03869855     0.82447441
O       3.02640200     6.05529801     7.82993699    -1.04912515     1.27671209    -0.28525757
O       2.95102599     5.83325000     3.03950602     0.06460336     1.48248038     0.74525921
O       2.85003500     1.32913699     7.89195800     0.70678572     1.02786803     0.09381599
O       3.12546398     1.60811701     3.25712201     0.00317814    -0.40321340     0.32896017
O       5.92522497     5.97146300     7.86785598    -0.15786579     1.23664914    -0.98022367
O       0.01958199     6.10149900     3.27650001    -0.10855433    -0.11054436    -0.21151137
O       0.18872800     1.46864298     7.93868800    -1.59976669    -0.04354062    -0.05346765
O       2.90621198     8.05598501     6.22689898     0.52275123    -0.75568324    -0.58160483
O       3.19170798     7.73703300     1.28579102    -1.75169812     1.04642960     0.37980993
O       2.98010301     3.11810402     6.03483499     0.96796825     1.27528230    -0.79513426
O       5.76909001     8.09998398     6.30705298     1.34382896    -1.79973843     1.32290454
O       5.87114697     7.89592497     1.25901200     0.32605123    -0.85461315     1.86567851
O       5.85545502     3.09006102     6.00644998     0.12694235     0.89441513    -0.42137183
O       0.18390698     3.36024500     1.46117798    -0.65452315    -1.53476352     0.59357255
