# total energy = -19517.74092942 eV

CRYSTAL
PRIMVEC
        5.17600016     0.00000000     0.00000000
        0.00000000     5.50899976     0.00000000
        0.00000000     0.00000000     9.26300011
PRIMCOORD
23 1
Ti      1.89583899     3.22764001     3.35200302    -0.46476923    -0.46443191     2.83654542
Ti      3.42455200     2.21645801     5.86746200     0.90005768     0.71970192    -2.48093472
Ti      4.22838198     2.18070600     1.49247199     1.01997526    -0.89300025    -0.93652982
Ti      0.86838500     3.37609598     7.83303199    -2.69755950     1.30507419     0.35260970
Ti      1.86725902     0.14361998     1.39861801     0.08734478     1.05492145     0.17770058
Ti      3.30376602     5.16460502     7.93467202     0.61194412    -0.03552160     1.45050433
Ti      0.82710902     0.58413802     5.82218702    -1.24245547     0.07714007    -2.19083165
Ti      4.49077002     4.87830102     3.41186598     0.15283183     1.04266191     2.19850665
O       1.72879800     2.02236802     4.85219099    -0.43605334     0.01275448    -0.51701356
O       3.53223502     3.59149102     4.55081899     0.14708412     0.48659251    -0.22653973
O       4.98118101     3.12920399     0.05774398    -0.65608792    -0.69342858     0.21867909
O       3.65216002     0.75952700     0.17360602    -0.35189545    -0.02944043    -0.28670973
O       1.70689001     4.82001500     9.08759102    -0.24097468    -0.64529982    -1.60877147
O       4.29572402     0.84016202     4.78431798    -0.39071038     0.12251594    -0.25422898
O       0.99244801     4.93194102     4.35692300     1.17663083    -1.49161397     0.12453760
O       0.14973700     3.36151000     2.62958600     0.31318156    -1.06818063    -0.59519363
O       5.12562100     2.03861800     6.82803899     0.05150410     0.25493140     0.56829294
O       2.41759098     1.84156699     2.16344800     0.72894684     0.17287924    -0.57645363
O       2.56203499     3.38601202     7.14171499     1.02581938     0.46312579     0.78108446
O       0.14481200     0.62142300     2.20070202    -0.37215189     0.78740449    -1.34406422
O       5.02308000     4.79427000     6.97683199     0.25352089    -0.49193655     1.12750320
O       2.51917899     0.77301302     6.74704502    -0.38559054    -1.09110434     1.31191410
O       2.91729100     4.37473801     2.21407200     0.76940676     0.40425470    -0.13060669
