# total energy = -19953.09311965 eV

CRYSTAL
PRIMVEC
        5.18132328     0.00000000     0.00000000
        1.61797055     5.27179508     0.00000000
        0.00000000     0.00000000     9.38191768
PRIMCOORD
24 1
Ti      2.83678830     3.12406091     3.48062455     1.72871013    -2.35148709     1.04437426
Ti      3.96250543     2.14773429     5.90129319    -1.72871013     2.35148709    -1.04437426
Ti      5.12771985     2.14773610     1.21029684    -3.40846362    -0.18581601     1.24175047
Ti      1.67157397     3.12405930     8.17162100     3.40846362     0.18581601    -1.24175047
Ti      2.02780315     0.48816346     1.21033445     1.72871013    -2.35148709    -1.04437426
Ti      4.77149061     4.78363190     8.17158339    -1.72871013     2.35148709     1.04437426
Ti      0.86258871     0.48816149     5.90125557     3.40846362     0.18581601     1.24175047
Ti      5.93670505     4.78363387     3.48066216    -3.40846362    -0.18581601    -1.24175047
O       2.20963644     1.85628870     4.78752078     0.19939889     0.90360683    -0.88462334
O       4.58965730     3.41550655     4.59439695    -0.19939889    -0.90360683     0.88462334
O       1.52049186     1.85630997     0.09659212     0.60657797    -0.66614865     0.30001365
O       5.27880195     3.41548532     9.28532535    -0.60657797     0.66614865    -0.30001365
O       3.78067213     0.77960894     0.09656168    -0.19939889    -0.90360683    -0.88462334
O       3.01862162     4.49218631     9.28535579     0.19939889     0.90360683     0.88462334
O       4.46981677     0.77958772     4.78755122    -0.60657797     0.66614865     0.30001365
O       2.32947693     4.49220760     4.59436651     0.60657797    -0.66614865    -0.30001365
O       1.17239087     3.20660465     2.53429003    -0.01950131    -0.12034773    -0.29765004
O       5.62690287     2.06519060     6.84762771     0.01950131     0.12034773     0.29765004
O       3.41273542     2.06514144     2.15669868     1.38013604    -0.51441417    -1.14246574
O       3.38655832     3.20665381     7.22521890    -1.38013604     0.51441417     1.14246574
O       0.36340564     0.57070705     2.15666871    -0.01950131    -0.12034773     0.29765004
O       6.43588805     4.70108821     7.22524887     0.01950131     0.12034773    -0.29765004
O       2.57757315     0.57075620     6.84765762    -1.38013604     0.51441417    -1.14246574
O       4.22172060     4.70103905     2.53426006     1.38013604    -0.51441417     1.14246574
