# total energy = -19074.62031636 eV

CRYSTAL
PRIMVEC
        5.17600016     0.00000000     0.00000000
        0.00000000     5.50899976     0.00000000
        0.00000000     0.00000000     9.26300011
PRIMCOORD
22 1
Ti      1.91230201     3.38110099     3.22063497     0.81904913     0.71173638     1.03241143
Ti      3.48083000     2.18571699     5.86268400     0.69599737     0.34763924     0.26540916
Ti      4.50948400     2.23959602     1.24171600     0.28775283     1.12418082    -2.76814299
Ti      0.71993200     3.34480202     8.03610900    -0.33848920    -0.87236149     1.25980939
Ti      1.86237101     0.57752399     1.42081298     0.42730182    -0.00101019    -3.04282279
Ti      3.11927499     4.98279199     8.10328599     0.46368397    -0.22328522     1.17251964
Ti      0.54893302     0.16789699     6.12688299     0.69964988     1.79048297    -1.40113373
Ti      4.54434800     5.01908201     3.35578298    -0.32873777    -0.80167232     2.13763319
O       3.61638198     3.28979199     4.31414399    -0.87968399     0.80973659     0.95359192
O       0.85302500     1.94092299     0.13000202    -0.17740541    -0.28760165    -0.22514850
O       4.30921798     3.78920000     9.13523502    -1.25583832    -0.63949453    -0.80477101
O       3.34164802     0.81628501     0.21381999     0.62441603     0.48305107    -0.94248321
O       1.48965200     4.65909998     9.11897102     1.08805347     1.06175133     0.08832128
O       4.19331102     0.86052698     4.69866201     0.11370451    -1.65029994     0.01913081
O       0.99821700     4.84366700     4.47900101    -0.04318889    -1.24681195    -0.13181691
O       0.35507799     3.60545098     2.19368699    -0.70072923    -0.44078520     1.18489050
O       0.04094699     2.09554000     6.63780998    -0.85305584    -0.51319624    -0.06599896
O       2.81392199     2.04012599     2.19011599    -0.93483700     0.15008049     0.99318487
O       2.40263400     3.52331002     7.02974998    -0.22808265    -0.61375212    -0.56627771
O       0.07879799     0.69260301     2.08659199     0.17547348    -0.02277073     1.05759257
O       2.32390798     0.70466999     6.66328399     0.08959089     0.10236877     0.01495946
O       2.80424699     4.76184900     2.41583999     0.25537492     0.73201340    -0.23085815
