# total energy = -19961.24525392 eV

CRYSTAL
PRIMVEC
        7.60600008     0.00000000     0.00000000
        0.00000000     7.60600008     0.00000000
       -1.89786986    -1.89786986     4.85670466
PRIMCOORD
24 1
Ti      3.74147398     6.63591701     1.25372801    -0.25081018     0.04017119    -1.13164834
Ti      3.76400598     2.88689098     1.16630899    -1.09615682    -0.13323976     0.41764115
Ti     -0.02882301     6.68591198     1.23607799     0.43545171    -0.02920594    -0.19195632
Ti     -0.05838100     2.89480303     1.19977500     1.19033867    -0.22393983     0.32939135
Ti      5.67897922     2.91350023     3.63738682     1.31365217    -0.29715202     0.48213499
Ti      5.71724821    -0.94469479     3.62341279     1.30271135     0.09372214     0.26032532
Ti      1.92930220     2.77563723     3.64705383    -1.18814346     1.24005123    -0.68002156
Ti      1.97001821    -1.03725276     3.68096081    -1.23757114    -1.09826152    -0.21036980
O       3.68832601     4.78910602     0.73488898     0.51716088    -0.68439192     0.46612086
O       3.65691003     0.91398902     0.80052902     0.54736287     0.37255144     0.43496371
O       0.06229501     4.75541500     0.78505101    -0.67091599     0.82516141    -0.52721621
O       0.07803502     0.99296502     0.75153901    -0.56738509    -0.04270527    -0.18332615
O       5.97263920     4.82631523     4.04277782    -0.61164099    -1.16786671     0.03413295
O       5.98917721     1.01607424     4.03387780    -1.47306834    -0.64253974    -0.13647986
O       1.65073922     4.74045521     4.03795680     0.95220815     0.14103046     0.54070500
O       1.82391623     0.91185024     4.12550881     0.73434822    -0.15159384    -0.56646180
O       3.83882725     2.95595020     3.33076279    -0.18557227    -0.38917723    -0.41668265
O       3.83391823     6.30806820     3.21404883     0.19256670     1.01842514     0.43978736
O       0.09355325     2.72208322     3.14594780    -1.82192269     0.40605756    -0.14502673
O       0.01864424    -1.04543178     3.10775184    -0.43495163     0.68751915     0.59209211
O       5.70904802     6.70388702     1.54906300    -0.44492237     0.16751926     0.28055554
O       5.62174198     2.91167002     1.55751999     0.65959336    -0.05735362     0.45752978
O       1.91693702     6.63757201     1.72147900     0.27884164     0.37290343    -0.25090068
O       1.85524998     2.98610700     1.67646501     1.85882523    -0.44768502    -0.29529002
