# total energy = -39028.63836403 eV

CRYSTAL
PRIMVEC
        5.93200024     0.00000000     0.00000000
        0.00000000     9.29399984     0.00000000
        0.00000000     0.00000000     9.29399984
PRIMCOORD
46 1
Ti      4.37294998     7.44366200     6.91174901     0.64374533    -2.18653327    -1.21284818
Ti      4.51792703     6.64864398     2.47492601    -2.18627462     0.32143121    -0.90140236
Ti      4.28793199     1.95386301     7.18877901     0.64435494     1.56902966    -1.88365310
Ti      4.08455801     2.77252398     2.13410200     0.74218468    -1.37139248     0.68878157
Ti      1.56439300     6.79536298     7.28211101    -2.20995449    -0.23868665    -1.25974717
Ti      1.41824599     7.15701901     2.04017298     1.94303172    -0.30616965     0.40149076
Ti      1.27124198     2.58411502     6.83387999     0.64389652    -1.22543553    -1.17277803
Ti      1.34765200     2.03873500     2.95569101    -0.66200789     0.30025637     0.50051838
Ti      3.10891798     4.75765998     4.77977203    -2.65327969     0.58919962     0.39080371
Ti      3.13284701     4.50919603     8.95800901     0.25515817     0.04957423    -0.32111265
Ti      3.16622899     8.99450102     4.53212998    -2.28007338     1.57909939    -1.22072527
Ti      2.95614202     0.15618598     0.21594898     0.89335635    -1.28481724     0.40110330
Ti      5.92607600     4.66907100     4.53615099     2.66589404     0.83381652     1.51994445
Ti      0.11366801     4.82020101     9.26328999     0.04832364     0.85487412    -0.14504370
Ti      0.09515300     9.02284402     4.83750600     2.53980889     0.02208758     0.10436883
Ti      0.00120901     9.22555801     9.15716799    -0.08771039     0.74099555     1.20261364
O       4.39471800     5.73746802     5.53583900     1.34286762     0.50152060     0.43246614
O       4.29811399     5.39083602     0.85791301     0.75235597    -1.43896316     0.69392789
O       4.60641700     0.37338398     5.84908801    -2.00335959     1.19750074    -0.50208290
O       4.39884802     1.24694401     0.48376903     0.54321002     0.12621576     1.43086083
O       1.28718799     5.80184100     5.39777099     0.36036467    -1.43520317     2.08721306
O       1.62494601     5.91083299     0.60999600    -0.50415084    -2.51482213    -0.59127810
O       1.42910100     1.14665900     4.90794098    -1.40114633    -0.54420118     0.93217462
O       1.60759799     0.79011101     1.07006800    -3.27850690     1.52485217     1.62185299
O       4.31127199     8.46082598     8.37795502     0.54643470     0.48094894     0.04754383
O       4.60971002     8.17573602     3.81806101     1.10664075    -0.14726050    -0.28229386
O       4.65000702     3.52534698     8.17346098    -0.83553813     1.98601081     2.87461447
O       4.38901299     4.00958999     3.67094402    -0.52107564    -0.83058104    -1.61557667
O       1.52451198     8.45709199     8.54186402     0.57313665    -1.66443330    -1.01701000
O       1.53671698     8.41701798     3.46629800    -0.92008941     0.85434396     1.44319005
O       1.34135198     4.05879199     7.93913399     1.15881308    -0.06409248     1.47385252
O       1.52440900     3.72810098     3.94398900    -0.14374735    -1.35355750    -0.91212695
O       3.13407602     6.06489898     7.86214198     0.88371574     0.95093597    -1.15064751
O       2.81865400     6.10544602     3.35146701     1.84656826     0.14152694    -1.34937637
O       2.66996900     1.61705799     7.86268402     0.22334796    -1.29130027     0.66031070
O       3.04438900     1.37922901     3.24055098     2.79076460     0.89092049    -1.37521906
O       5.80171998     6.18972300     8.08832599    -0.08739003     0.41842971    -0.99502423
O       0.33871302     5.93301399     2.97734102    -2.55309893    -0.46450364     0.51714494
O       0.18903100     1.25856898     7.79609198    -0.49628506     0.91578306    -0.53393399
O       2.71132801     7.82603003     5.84714699     0.70138923    -0.03664672     2.20073374
O       3.23150697     7.93059402     1.59469501    -1.00628953     0.20427654    -1.07181077
O       3.45005501     3.14867100     5.95205198    -2.97751597    -0.30663193     0.41661708
O       0.20198299     7.90181101     6.33621001    -0.20656328     0.17992329    -0.66239124
O       5.66677502     7.70049098     1.32291402     1.29795378     1.44062846    -0.44468943
O       5.77460901     3.11974098     5.91038198     0.96512564     0.28358687    -0.53288627
O       5.84689298     2.95932302     1.92683401     0.90161474    -0.25253642    -0.88847022
