# total energy = -39035.85518396 eV

CRYSTAL
PRIMVEC
        7.60600008     0.00000000     0.00000000
        0.00000000     7.60600008     0.00000000
       -3.79573973    -3.79573973     9.71340985
PRIMCOORD
46 1
Ti      1.98706147     4.83719347     6.10760565    -2.45837534     1.19820188    -0.07050610
Ti      3.77101900     6.74255098     1.28267798     0.33976395     1.85978656     0.34238057
Ti      1.82394947     1.13885845     5.95860061     1.14697854    -2.42134553     2.26296860
Ti      3.78687098     3.08603498     1.09936299     0.57892343    -1.97189776     1.28035046
Ti     -1.97361354     4.66670346     6.01045262     0.97935747     0.32124480     0.42125535
Ti     -0.00125500     6.75177603     1.28774702     0.11457560    -1.16269570     0.29891734
Ti     -1.94342155     0.85730043     6.03325863    -1.32826195    -0.54620639    -0.18595896
Ti     -0.13617599     2.98044100     1.11798299     0.01428017     0.46029551     0.16576474
Ti      3.87535947     0.95752343     8.50151261    -1.94801169    -0.10081659    -0.29438294
Ti      5.70273801     2.68488899     3.63613098     0.22299880     1.15206445    -0.95562798
Ti      3.80804046    -2.89166855     8.56141262    -0.54479099     0.42063366     0.55293060
Ti      5.69605302    -1.05092998     3.57166698     0.45821241    -0.75091898     0.77620990
Ti     -0.10458257     1.02817044     8.31856964     1.61151149    -0.42309241     1.83225981
Ti      1.99204802     2.68010798     3.37065101    -0.65266758     0.74833245     1.18512704
Ti     -0.05485557    -2.90106854     8.59787764     0.76330708     0.99857596     0.29566977
Ti      1.98324298    -1.08477002     3.80569001    -0.43064811     0.29838769    -0.12435556
O       1.95099344    -0.84915253     5.88251762     0.02369992    -1.55998065    -1.87936269
O       3.92098101     1.12722099     1.00448701    -0.24336220    -1.73257347    -2.03715007
O      -1.86231656     2.75340845     5.67065161     0.03502589     0.74900017    -0.62277592
O       0.03417998     4.79789201     0.80353697     0.26313708    -0.21676439    -0.02242774
O      -1.96123657    -1.05240856     5.65949661    -0.16012296    -0.24968609    -0.43935438
O      -0.03409002     0.95046600     0.84639499    -0.12786152     0.14973725    -0.29181055
O       3.97335844     2.82312946     9.06008661     0.05526665     1.18318226    -1.14679034
O       5.57178902     4.66337298     3.98825600     0.20447862    -0.13134897     1.22028355
O       3.92344645    -0.89246754     8.91458462    -0.69192860    -0.98859313    -0.16446427
O       5.91110197     0.86883401     4.05588602    -0.34410526     0.29016041    -0.11541481
O      -0.22746753     2.75864546     9.11352161     0.11368368     0.85528601    -1.35474793
O       2.00371701     4.58099300     4.10469902     0.09541496     0.41525311     0.42076813
O      -0.00628954    -0.74635757     9.01824563    -0.02484252    -0.17423138    -1.03104797
O       1.95398901     0.87943798     4.05134298    -0.52690228     1.09788845    -0.20713226
O       1.91342746     0.98972746     8.05096163    -0.55762877     0.96239641    -0.35288558
O       3.82265601     2.66415398     3.17455501     0.93637966     0.22652996     0.79803858
O       1.91625242    -2.64002455     8.36521164    -0.06651498    -1.06247715    -0.85625712
O       3.90322801    -0.75896099     3.23855699    -1.75129317    -0.69208389     0.89221864
O      -1.95641756     0.67996144     8.04503463     0.71768618     0.99008386    -0.38330046
O       0.06798901     2.77920299     2.93152602    -1.31579596    -0.31381894     2.59764614
O      -1.90049554    -2.66325554     8.03206762    -0.13970017    -0.68547204     0.08258566
O      -0.07826801    -1.09593497     3.25873500     1.84710331     0.20692194    -0.05701706
O       3.67923845     4.41179746     6.53523463     1.96614029    -0.16370400     0.39271790
O       5.65744202     6.50064300     1.52684099     0.66624172     0.07198423     0.52778494
O       3.79747443     0.99210542     6.45174062    -0.40499775     0.71908794    -0.37613273
O       5.63306198     3.26934003     1.65743702     0.05696564    -0.55615450    -0.37962944
O       0.08068942     4.72440246     6.58529760    -0.35109455    -0.82098465     0.07561720
O       1.97025502     6.57523800     1.76667000    -0.94955323    -0.19661285     0.16122006
O      -0.09929154     0.91643244     6.51112463     1.65376836     0.58371597    -2.07028594
O       1.94576199     2.78612002     1.52536602     0.15355816     0.96270854    -1.16389667
