# total energy = -19074.99537281 eV

CRYSTAL
PRIMVEC
        5.17600016     0.00000000     0.00000000
        0.00000000     5.50899976     0.00000000
        0.00000000     0.00000000     9.26300011
PRIMCOORD
22 1
Ti      1.70018099     3.38057102     3.30363500     1.03627940    -0.09837610     0.07017546
Ti      3.58397802     2.24966801     5.92265698     1.00334381     0.21621546    -0.55927248
Ti      4.44290102     2.24031798     1.19373900    -0.21493531     0.20708341    -1.09035923
Ti      0.78605899     3.28241398     8.13129100    -0.24664679    -0.07727093     0.09588573
Ti      1.80892702     0.63763800     1.30423200     0.27728021    -0.10258937    -1.00609335
Ti      3.19332699     5.01515901     8.09418700     0.94622519    -0.73007093     0.37156363
Ti      0.79706498     0.25755798     5.99699300    -0.15077314     1.22017068    -1.55547377
Ti      4.26920800     4.90141897     3.39844499     0.73122330     0.74680856     0.85446223
O       3.41809699     3.39295398     4.35675202     0.00888831    -0.18263761     1.46031875
O       0.96738703     2.07835598     0.26042299    -0.35446938    -0.91128543    -0.58074531
O       4.26916699     3.73009101     9.09646300     0.17231206    -0.36755913    -0.43749856
O       3.41151402     0.82399100     0.12640801     0.81562313     0.65399427    -0.55650314
O       1.66558502     4.64616498     9.08366601    -0.53359229     1.70852234     0.67285795
O       4.50741899     0.87383500     4.72288198    -0.42121525     0.00730116     0.31523073
O       0.86881099     4.69065101     4.37177600     0.56188986    -0.68511440     1.77985659
O       0.10635097     3.58671302     2.32950303    -0.92592864    -0.84647561     0.07161888
O       0.16496799     1.99948999     6.86285398    -1.04112670    -0.90399661    -1.03968020
O       2.73360802     2.22394698     2.01464500    -0.52698301    -0.70828185     1.39714209
O       2.51640901     3.30739099     7.19042602    -0.08144384    -0.04041004    -1.17486937
O       0.08117097     0.69267699     2.12591801    -0.03594069     0.15033400     0.31760078
O       2.69458802     0.63565099     6.42329502    -1.74655591    -0.87205244     1.04405236
O       2.56245997     4.74296600     2.40989902     0.72654594     1.61569057    -0.45026924
