# total energy = -4985.57361826 eV

CRYSTAL
PRIMVEC
        3.86279033     0.00000000     0.00000000
        0.00000000     4.03494221     0.00000000
        0.00000000    -0.00007052     5.25383054
PRIMCOORD
6 1
Ti      1.93139499     2.01743579     2.62691521     0.00000000     0.00000000     0.00000000
Ti      0.00000000     0.00000000     0.00000000     0.00000000     0.00000000     0.00000000
O       1.93139499     0.78633705     1.02389417     0.00000000     0.47529122     0.93403250
O       1.93139499     3.24853453     4.22993620     0.00000000    -0.47529122    -0.93403250
O       0.00000000     1.23107052     3.65081053    -0.00000000    -0.47518195     0.93421762
O       0.00000000     2.80380106     1.60301990    -0.00000000     0.47518195    -0.93421762
