# total energy = -39035.90798387 eV

CRYSTAL
PRIMVEC
        7.60600008     0.00000000     0.00000000
        0.00000000     7.60600008     0.00000000
       -3.79573973    -3.79573973     9.71340985
PRIMCOORD
46 1
Ti      1.87234643     4.75853747     6.15756961     0.07167390     0.88345529     0.89957816
Ti      3.80644700     6.68042700     1.24030300     0.19958916     0.96062569     0.32473379
Ti      1.78322742     0.82052547     6.12428362     2.73064575    -0.60574493    -0.36818957
Ti      3.66421701     2.76585899     1.21248701     1.75099826     0.57747513    -0.89975763
Ti     -1.96834553     4.57456143     5.95629863     0.47835855     1.79644381     1.73311135
Ti      0.01256097     6.66962501     1.19539903     0.08969862     0.50995459    -0.30151055
Ti     -1.76146855     0.97822145     6.01936561    -1.50333023     0.04032057     0.46608924
Ti      0.03151700     2.94360100     1.10903301    -1.54741310    -0.38022105     1.08517049
Ti      3.87929745     1.04311044     8.45658864     0.43201363     0.16775426    -0.94564001
Ti      5.59202503     2.86892203     3.44425300     2.08608486    -0.54578010    -0.24076462
Ti      3.94700743    -2.80910653     8.49612760    -0.85993997    -0.17488187     1.07210928
Ti      5.57759002    -0.95963199     3.76026199    -0.38304952     1.09738503    -1.04570867
Ti      0.10230346     0.99772343     8.40098661    -0.69488177     0.05843991     3.97390263
Ti      1.93037902     2.70963099     3.51301303    -2.18731849    -0.16994201     0.83482491
Ti      0.00442546    -2.79793253     8.49218264     0.27830711    -0.76204775     0.15425622
Ti      1.85463100    -1.11755298     3.64301701     0.83678383     0.28506140     2.06092430
O       1.53448543    -1.03788958     5.75160065     0.83163725     0.17864777    -0.68692137
O       3.76853600     1.00794899     1.05100899    -0.34262945    -0.91535060    -1.42627527
O      -1.99740054     2.90871346     5.45934060     0.40250172    -2.39423581     0.79532015
O      -0.24079099     4.79975799     0.64571901     0.46793889     0.40110973     1.38230425
O      -1.61681652    -0.93353355     5.71105562    -0.57025238     0.51406167    -0.24785547
O       0.22383600     0.94907897     0.94916301    -0.67325827     0.19669101    -0.85951522
O       3.92354942     2.86874046     8.87764762    -0.68960046     0.46956717     0.82186294
O       5.49708899     4.73776699     4.04793502     0.15004707     0.91820479    -0.40453444
O       4.08002745    -0.90023655     8.93319965     0.05047977    -0.44672188    -0.52587101
O       5.65266498     0.95868201     3.94296700     0.20208081    -0.19496117     1.17160381
O       0.14145543     2.90121443     9.06069263     0.19350798    -0.64541038    -0.07459570
O       1.96180300     4.41673802     4.31109201     0.13903143     0.93498587    -0.54110660
O      -0.16579557    -0.91426155     8.92575063     0.15860139     0.13150632     0.04005240
O       1.90437599     0.94230498     4.12812702    -0.30071865    -0.03905867     0.14302615
O       1.93593845     0.84277843     8.20009463     0.10358696    -0.20534946    -0.58837147
O       3.74014199     2.78848999     3.19593102     0.01516514     0.06245160    -0.24843859
O       2.04638642    -2.82764355     8.18463360    -2.25140943     0.12044929     0.01711070
O       3.65155798    -0.87944502     3.34843700     2.10807706    -0.71908486     0.09629633
O      -1.75502757     1.21558243     7.99394961    -2.25004700    -0.84930974     0.02490294
O      -0.13672898     2.88533599     3.16456102     1.06426947    -0.07274399    -0.19783515
O      -1.92400053    -3.12462857     8.10351264     2.38569100     0.78404432    -0.55167590
O       0.19856800    -1.04295200     3.12882098    -3.29588602    -0.20581688     0.19361442
O       3.79194145     4.74264045     6.58348163     0.66350556     0.08244014    -1.57058312
O       5.65178602     6.84344498     1.87709400     0.82818092    -1.03066282    -1.19077036
O       3.70186247     1.22056643     6.52555963     0.19957039    -0.68304389    -0.76219559
O       5.63837503     3.03339598     1.47846901    -0.75997647    -0.21963991     0.28617751
O       0.04405543     4.51950244     6.54562561    -0.53265333    -0.17603964     0.47238407
O       1.97561002     6.47876502     1.52280200    -0.38159350    -0.59400604     0.31453576
O       0.06280942     1.30385644     6.65433364     0.36528730     0.63842958    -4.20184387
O       1.86876099     3.15612700     1.64723501    -0.05935471     0.22054777    -0.48393270
