# total energy = -19960.44703142 eV

CRYSTAL
PRIMVEC
        5.93400000     0.00000000     0.00000000
        0.00000000     9.29699974     0.00000000
        0.00000000     0.00000000     4.64899994
PRIMCOORD
24 1
Ti      4.47639201     7.01321102     2.34415600     0.91019580    -0.04805882     0.76954817
Ti      4.42369400     2.28669200     2.25287800    -0.45752309     0.73123152     0.94336407
Ti      1.51333898     6.92356802     2.32466402    -0.99115807    -0.37006236     0.19513086
Ti      1.46035601     2.30648699     2.27363900     0.56683847     0.73886513     1.22458141
Ti      2.98513898     4.65192100     0.02621401    -0.68821901     0.49118939    -0.56672740
Ti      2.92387100     0.04579198     0.12900802     0.71060664    -1.49350656    -1.50530458
Ti      5.88751400     4.59717899     0.00960700     0.85486744     0.96032641    -1.15998062
Ti      0.02805999     0.05389601     4.62658098    -0.16265010    -2.06402171    -0.80641549
O       4.52853100     5.49613901     0.89604499    -1.11274121     1.09997182     0.92496576
O       4.45484201     0.85197199     0.93482701    -0.09881062     0.24305830     0.17819860
O       1.46122503     5.47919401     0.95004800     0.81424528     0.45873871     0.48211622
O       1.48727901     0.86399802     0.95871302    -0.61749308     1.06848042     0.14428136
O       4.40142199     8.41031701     3.65157899     0.32857296     0.44321104     0.79610022
O       4.45860599     3.78877899     3.65591798    -0.19300379    -0.70709246    -0.48096436
O       1.38832398     8.42181402     3.71986899     0.75039653     0.63677070     0.73690029
O       1.49666900     3.79187398     3.80182500     0.34710471    -1.12273149    -1.82392558
O       3.05650001     6.02944601     3.25008602     0.04402964     0.76724344    -0.58464542
O       2.95274100     1.39422499     3.23324299    -0.27429927     0.96731416    -0.64995121
O       0.04111099     6.20002100     3.33850799    -0.71061821    -0.25416213    -0.89378881
O       0.05418299     1.44078799     3.26031702    -0.26935015     0.79485812    -0.78162105
O       2.85687298     8.02018003     1.49649601     1.37347816    -0.84618173    -0.47282399
O       2.98555602     3.20842903     1.34523498    -0.10452952    -0.88073583     0.83325062
O       0.18200300     7.83125301     1.35630002    -1.73474889     0.30037309     0.02444066
O       5.83164500     3.18634900     1.19762300     0.71480937    -1.91507944     2.47327026
