# total energy = -19960.76070970 eV

CRYSTAL
PRIMVEC
        5.93400000     0.00000000     0.00000000
        0.00000000     9.29699974     0.00000000
        0.00000000     0.00000000     4.64899994
PRIMCOORD
24 1
Ti      4.48768502     7.07856499     2.20262198    -1.19033276    -1.14857366     0.79335840
Ti      4.43717701     2.23986098     2.34663001     0.78215250     0.74797661     0.00785807
Ti      1.51069802     6.93480801     2.35372500     1.17606236    -0.15780306     0.91381025
Ti      1.48021598     2.22076700     2.27603803    -0.75825794     0.86564293     0.16701635
Ti      2.97857501     4.60455699     0.09604001     0.46826671    -0.30164862    -0.44765699
Ti      2.96078698     0.05154499     0.00443599    -0.65745086    -0.21402668    -0.29230188
Ti      0.02842301     4.63942898     4.57025001    -0.31090177    -0.38467291    -0.44257752
Ti      5.89039400     9.29028300     0.03644301     0.86303686     0.49309997    -0.64439480
O       4.43866299     5.50950301     0.97414002     0.33910009     0.26638541    -0.06202737
O       4.38614998     0.86469499     0.99794198     0.47676446     0.23963487    -0.17543903
O       1.49511798     5.58177698     0.89037099    -0.49853786    -0.18083347     0.39703633
O       1.43670999     0.96564900     0.87807498     0.69325940    -0.61852589    -0.04555354
O       4.48639701     8.48086100     3.83735201    -0.49555435    -0.64130844    -1.24943704
O       4.41406398     3.81544502     3.71036100     0.32621501    -0.16161061     0.35283596
O       1.55495301     8.49552699     3.74211698    -1.10871512    -0.85330215    -0.24239675
O       1.49473999     3.78670498     3.61324899    -0.35474449     0.85897889     1.45625409
O       3.02228998     6.23680099     3.25970699    -0.95264473    -0.46549094    -0.01709784
O       2.90706898     1.41376598     3.22123998     0.84982319    -0.45626762     0.85142756
O       5.83314898     6.14746301     3.31201097     1.08866256    -0.00600481    -0.48171718
O       5.91629299     1.43304401     3.21960498    -0.08766205    -0.80340344     1.24636175
O       2.97088998     7.84752399     1.36501801    -0.46240716     0.36749100     0.17338189
O       2.98684801     3.16736498     1.43237201    -0.18589571     0.92150583    -0.95316589
O       5.92845301     7.98760800     1.46135600     0.70231946    -0.45238448     0.06463704
O       0.00756798     3.02789698     1.43258997    -0.70255780     2.08514101    -1.37021157
