# total energy = -19961.61097535 eV

CRYSTAL
PRIMVEC
        7.60600008     0.00000000     0.00000000
        0.00000000     7.60600008     0.00000000
       -1.89786986    -1.89786986     4.85670466
PRIMCOORD
24 1
Ti      3.86024601     6.70346098     1.13378602    -1.44739741     0.98911481     0.83250037
Ti      3.79907699     2.93624200     1.22436502     0.81152222    -0.90860583    -0.95296534
Ti     -0.08715899     6.59765199     1.24258899     1.95346731     0.27470062    -0.43185396
Ti      0.02396803     2.78965302     1.24062003    -0.78250037    -0.29321026     0.52292658
Ti      5.67592825     2.76339323     3.69146482     0.61506313     0.02325769    -0.85826129
Ti      5.68830020    -0.99964175     3.66063183    -0.36286969     0.22636669     0.33158810
Ti      1.93831721     2.91534225     3.63831283    -0.74300615    -0.51777460    -0.29190979
Ti      1.89298323    -0.86311080     3.61001180     0.31647772     0.02042511    -0.82006009
O       3.90257099     4.83832501     0.72462601    -0.15653062    -0.98095412     0.78339820
O       3.85073400     1.01533800     0.64203102    -0.18420135    -0.73707564     1.58965788
O      -0.05745097     4.66569300     0.80120399    -0.19368204     0.95929180     0.18895661
O      -0.07842502     0.97120901     0.89496399     0.20786811    -1.24035153    -1.15488778
O       5.64575424     4.71546921     4.06480779    -0.23214679     0.24054710     0.24864762
O       5.74748624     0.87481323     4.06682782    -0.29620019     0.08727690     0.21473682
O       2.01454720     4.79442822     4.05483983    -0.18928546    -0.53658429    -1.00628207
O       1.95108520     0.94850921     4.12030679    -0.33764099     1.42715433    -0.86007598
O       3.74751321     2.69555620     3.09931479     0.63928833     0.34073994     1.76167117
O       3.75691823    -0.89071977     3.10166180     1.09459281    -0.20448994     0.51020399
O      -0.06998279     2.73394822     3.26197081     1.21004670     0.55476251     0.14017454
O      -0.01728780    -0.99467278     3.23593582    -0.38451222    -0.23057739    -0.12703028
O       5.71992098     6.77487302     1.63591898    -0.67660456    -0.44431919     0.24683217
O       5.69933101     2.77715502     1.70188097    -0.53922301     0.53153695    -0.37000039
O       1.86394701     6.70154398     1.55659600     0.01453522    -0.11026489    -0.09736591
O       1.90041801     2.80203900     1.66102399    -0.33706069     0.52903321    -0.40060116
