# total energy = -19074.01064980 eV

CRYSTAL
PRIMVEC
        5.93400000     0.00000000     0.00000000
        0.00000000     9.29699974     0.00000000
        0.00000000     0.00000000     4.64899994
PRIMCOORD
22 1
Ti      4.44095798     6.94292998     2.45578800     0.72026705    -0.25604495    -0.37871412
Ti      4.38565102     2.33415799     2.17883700     0.12808161     0.08948471    -0.11437737
Ti      1.48049898     7.15163998     2.40571101     0.00276394     0.03540796     0.82086715
Ti      1.61027600     2.40235798     2.22660297    -1.07771557    -0.16216982     0.42607669
Ti      2.98922100     4.62077400     4.57221998    -0.48476600     0.09220571    -0.49563843
Ti      3.00023799     9.28336602     0.16250102    -0.69894565     0.70513585    -0.73050776
Ti      5.75845598     4.58357803     4.57670301     1.13770971    -0.03518067     0.06562486
Ti      0.00588699     9.16088202     0.01872398     0.26605425    -0.41588123     0.97729647
O       4.34150600     5.55071401     1.00612201     0.38922788    -0.71640834    -0.30679854
O       4.50829600     0.86288399     0.83861698     0.59411326     0.50576163     0.53208974
O       1.42877101     0.74061198     1.11672799     0.09416309     0.67506318    -0.78852087
O       4.47064499     8.23035902     3.88417800    -0.23358661     1.36410623     0.19709467
O       4.41207401     3.99830502     3.42735002    -0.00293029    -1.44346824    -0.11159389
O       1.57354898     8.41471802     3.77546298    -0.39206690     0.62060925     0.23584198
O       1.46582702     3.87592501     3.57780702    -0.23379770    -0.48484673    -0.00031625
O       3.00669898     6.14158602     3.30411401    -1.32397798    -0.36392925     0.14149172
O       3.08553200     1.38345798     3.23849899    -0.18733887     0.85974816    -0.41259279
O       0.09326802     6.30213200     3.54588102     0.10051346    -1.44547139    -0.84833529
O       3.01276600     8.02457299     1.53739702     0.10525895    -1.42247106     0.42890413
O       2.91555799     2.97163501     1.05294901     0.75383127     1.24146919     0.33697662
O       0.01542202     7.97055198     1.55474398    -0.06921104    -0.87207866    -0.46670399
O       5.90625302     2.95372300     1.16730601     0.41235316     1.42895899     0.49183448
