# total energy = -4990.21814329 eV

CRYSTAL
PRIMVEC
        3.13072899     0.00000000     0.00000000
        0.00000000     4.43820394     0.00000000
        0.00000000    -0.00006071     4.68350204
PRIMCOORD
6 1
Ti      1.56536450     2.21907146     2.34175102     0.00000000     0.00000000     0.00000000
Ti      0.00000000     0.00000000     0.00000000     0.00000000     0.00000000     0.00000000
O       1.56536450     0.86492868     0.91274556     0.00000000     0.03353774    -0.06303782
O       1.56536450     3.57321418     3.77075643     0.00000000    -0.03353774     0.06303782
O       0.00000000     1.35411818     3.25449753    -0.00000000    -0.03348220    -0.06316483
O       0.00000000     3.08402474     1.42900446    -0.00000000     0.03348220     0.06316483
