# total energy = -19958.81515148 eV

CRYSTAL
PRIMVEC
        7.60600008     0.00000000     0.00000000
        0.00000000     7.60600008     0.00000000
       -1.89786986    -1.89786986     4.85670466
PRIMCOORD
24 1
Ti      3.55531900     6.76287298     1.33872398     3.91417434    -0.29906955    -0.38763148
Ti      3.84774399     2.95793001     1.20898200    -0.66208811    -0.14307732     2.35266131
Ti      0.09466198     6.67750399     1.19593498    -3.68148171     0.09853577    -1.34744445
Ti     -0.05987101     2.76459103     1.16577298     0.79499671    -0.94706620    -1.96834861
Ti      5.75888324     2.81673224     3.68373783    -2.26997177    -0.11152241    -0.50117298
Ti      5.87672424    -1.09816175     3.48644484    -2.69110449     0.08837708    -0.19544454
Ti      1.74736921     2.88374523     3.57677883     1.97313909     0.37604043     0.95389685
Ti      1.86087921    -0.88479680     3.74188981     0.82706892    -0.66358115     1.69272059
O       3.76472201     4.72692299     0.72561901    -0.49254102     1.81910758     1.43681423
O       3.64874001     1.02899400     0.93772601     0.21886884    -0.91081698    -1.18275109
O       0.35863602     4.84960898     0.67656899    -1.45052387    -2.03610569     1.33633239
O      -0.00870502     0.78482400     0.53415501    -0.06879143     0.97439241     2.15025294
O      -1.47776076     4.66143021     3.84341680    -1.00879121     0.12728585     0.31276582
O       5.78924521     0.78891724     4.02844881    -0.67207607     2.42274549     1.29713822
O       1.76443824     4.79564523     4.28564483    -0.18944821     0.68450659    -1.88336513
O       1.88356821     1.07423220     4.19347380     0.15203196    -2.52170909    -2.40817273
O       3.75579722     3.02965623     3.22449982    -0.00996946    -0.13297416    -0.11536724
O       3.93391923    -1.09657078     3.25549781    -3.37408796     0.22012071    -0.56590876
O      -0.08868878     2.69478323     3.29871180     1.66360515    -0.11787433    -1.73474554
O       0.02620322    -0.88632977     3.23120582     3.02566375     0.20352577    -0.39686663
O       5.74053502     6.78827402     1.60266199     0.77921733    -0.72521668    -0.56187161
O       5.64772998     2.65584701     1.54455398     1.56978582     0.57369432     0.28100085
O       1.80337802     6.83405298     1.73239497     1.73054333     0.03996473     1.11361821
O       1.75828402     2.58124000     1.63952400    -0.07821941     0.98071707     0.32188912
