# total energy = -19074.65200145 eV

CRYSTAL
PRIMVEC
        5.17600016     0.00000000     0.00000000
        0.00000000     5.50899976     0.00000000
        0.00000000     0.00000000     9.26300011
PRIMCOORD
22 1
Ti      1.86665301     3.38021499     3.27049802     0.48678431     1.25132166    -0.35466299
Ti      3.56819103     2.27726101     6.04586903    -0.59491210    -0.16927584    -0.92348892
Ti      4.43041497     2.19550900     1.32223900    -0.08094941     1.14772648    -2.23831917
Ti      0.69717298     3.25339898     8.06665999     1.15788337     0.03326315     1.74485744
Ti      1.84332402     0.52532198     1.22395100    -0.44972185     0.01631623    -2.28009164
Ti      3.29867999     5.00419202     7.99467702     0.12087866     0.42880309     1.12469427
Ti      0.61217500     0.22675198     6.00445699     0.38157396     0.44490077    -1.21157754
Ti      4.41873598     5.14162798     3.40208800     0.20181110    -0.73012415     0.47863648
O       3.33426700     3.40758001     4.46781600     0.00010542     0.08432424     0.70450927
O       0.78266400     1.96376799     0.18931999     1.48271589    -0.62836936    -0.67879951
O       4.34224103     3.55792901     9.01319299    -1.41463125     1.54523614     0.06926734
O       3.41429400     0.70877900     0.24453302     1.63206310     0.84405106    -1.67392093
O       1.67449499     4.77266697     9.01669000    -1.52008098    -0.50294139    -0.06303473
O       4.41802101     1.01237000     4.70093102     0.06925140    -1.00792526     0.18583941
O       0.93758397     4.74444399     4.28891901    -0.52610215    -0.09389184     1.67979051
O       0.08538799     3.46936802     2.36663598     0.18390542     0.34157015     0.85895472
O       0.02658698     1.84948899     6.95241898    -0.19999333    -0.13014441    -0.81776820
O       2.65879098     2.06279801     2.07797899    -0.20440895     0.75384978     1.35692179
O       2.58059001     3.45072601     7.22342298    -1.03696357    -1.39053821    -1.46779115
O       0.13636099     0.77210702     2.10501201    -0.48986090    -1.51055838     1.83611775
O       2.39872899     0.69730702     6.40265202     0.39860933     0.09792256     0.76538376
O       2.71766602     4.83727200     2.36949602     0.40204252    -0.82551623     0.90448152
