# total energy = -4956.79773546 eV

CRYSTAL
PRIMVEC
        4.30231141     0.00000000     0.00000000
       -0.00000651     2.58138685     0.00000000
       -2.15117994    -1.29074051     4.68540270
PRIMCOORD
6 1
Ti     -0.00018441     1.93613189     1.17135036    -0.01893310    -0.02490629    33.27234493
Ti      2.15130923    -0.64548565     3.51405176     0.01893310     0.02490629   -33.27234493
O       0.00004556     0.64533842     0.76321371     0.01856671     0.02110337   -21.10562752
O       2.15107916     0.64530777     3.92218846    -0.01856671    -0.02110337    21.10562752
O      -0.00001772    -0.64534701     3.10591506    -0.00133569    -0.00010670     0.90042637
O       2.15114240     1.93599315     1.57948706     0.00133569     0.00010670    -0.90042637
