# total energy = -19067.68262521 eV

CRYSTAL
PRIMVEC
        5.17600016     0.00000000     0.00000000
        0.00000000     5.50899976     0.00000000
        0.00000000     0.00000000     9.26300011
PRIMCOORD
22 1
Ti      1.76290702     3.23336301     3.21962298     0.07347264     2.66515073     0.72770988
Ti      3.79341802     1.96422499     5.98513398    -1.28132259     0.62578592     0.78878132
Ti      4.29524199     2.21616501     1.67371398    -0.90814097     0.31446069    -3.83469817
Ti      1.23381502     3.06737699     7.80319899    -0.34975732    -1.99781732     2.51011573
Ti      1.72229198     0.64459599     1.22875899     0.00214610    -1.68980136    -2.88008270
Ti      3.40246599     5.28087600     8.00255800    -1.25973894     2.11012803     0.29528025
Ti      0.66323002     5.49251298     6.18916499     3.07133967     2.77440235    -0.02539814
Ti      4.38348298     5.09670200     3.46777901    -1.03201214    -1.40065396     0.48333441
O       3.15708402     2.42997802     4.07974699     1.16735377     0.38305466     1.78283727
O       0.57579798     2.24802301     0.24137701    -1.05129362    -0.18945001     0.66439053
O       5.11945101     3.94058401     6.75721898    -2.53876348    -1.76929321     1.43873664
O       3.28433701     0.98621700     0.17658301     1.06971584     0.27883393     1.19412437
O       1.88343899     4.58131299     9.23471500    -0.37733190    -0.36195772    -2.02766295
O       4.09291303     0.16880601     5.58647501    -2.64383628     0.90459465    -1.61889313
O       0.82054097     5.31766800     4.32840299     2.23300855    -1.20856060     0.73371367
O       5.17333602     3.65176399     2.33533800    -0.23989815     1.35058762     1.48295038
O       4.74937503     1.60786300     7.59190799     1.12778885    -1.71233683    -2.82133502
O       2.25365399     2.36373100     1.76763098     2.12884850     0.55777018     0.51231692
O       2.22772901     4.39420300     6.73254599     0.85549041    -1.47711937    -0.16603599
O       5.11754301     0.78669199     2.28997798     1.20942758    -0.42856989     0.07363976
O       2.31450403     1.31758198     7.28318497    -1.32760375     1.18827999    -2.16972417
O       2.70569101     5.06036101     2.29738398     0.07110671    -0.91748822     2.85589940
