# total energy = -19961.25564636 eV

CRYSTAL
PRIMVEC
        7.60600008     0.00000000     0.00000000
        0.00000000     7.60600008     0.00000000
       -1.89786986    -1.89786986     4.85670466
PRIMCOORD
24 1
Ti      3.82196602     6.63720799     1.16020800     0.75886215     0.06737398    -0.21223153
Ti      3.83965901     2.73118602     1.20883600    -1.50951374     0.09172748     0.18439110
Ti      0.00439799     6.67277103     1.22093098    -0.72943818     0.84799179     0.33507272
Ti     -0.07935399     2.90450602     1.30708702     1.03708056    -1.00891642    -0.98789713
Ti      5.63533120     2.96168024     3.63782181     0.37657574    -1.79717581     0.36710944
Ti      5.64823725    -0.91811777     3.66360983     0.61485358     1.77672679     0.01548370
Ti      1.96040221     2.78769321     3.69688482    -0.69963831    -0.12438899    -0.69644834
Ti      1.95571524    -0.96295077     3.57251081    -0.34417288    -0.09989665     0.58674421
O       3.86556499     4.61337298     0.81584098    -0.23200846     2.05212855    -0.21115630
O       4.06427798     0.89539098     0.70199601    -1.00126379    -1.10423522    -0.05744824
O      -0.16794800     4.80013000     0.77110100     0.40810390     0.13643873     0.68380442
O      -0.17755601     1.02569500     0.75978502     0.51528166    -0.34204169     0.16499418
O       5.62194021     4.86039620     4.05735782     0.31812040    -1.00782191    -0.06959876
O       5.58993721     1.07080324     4.03011080     0.26403671    -0.72804233     0.70238991
O       2.01075322     4.73141221     3.95716583    -0.50913929    -0.27640886     0.64372734
O       2.06139225     0.88824523     4.16569083    -0.50145503     0.12859711    -1.58961109
O       3.75983521     2.87679624     3.22720079     0.09603999     0.14236641    -0.00681754
O       3.82122025    -0.88534979     3.16200880    -0.76786179    -0.25069499    -0.62000607
O      -0.04939277     2.79246824     3.31144983     0.41481782     0.75982811    -0.76045315
O       0.05293424    -0.88459476     3.19311882     0.18106564    -0.15168023     0.01618793
O       5.70811900     6.71487401     1.69406503     0.02480627    -0.49222271    -0.55809132
O       5.63159097     2.67118801     1.64711499     1.46167089     1.03506018     0.79059755
O       1.91861398     6.73528702     1.46245102     0.28698587    -0.22844543     0.59725849
O       1.88167402     2.60419798     1.58933900    -0.46380996     0.57373237     0.68199899
