# total energy = -19517.44143318 eV

CRYSTAL
PRIMVEC
        5.93400000     0.00000000     0.00000000
        0.00000000     9.29699974     0.00000000
        0.00000000     0.00000000     4.64899994
PRIMCOORD
23 1
Ti      4.45554401     6.94994999     2.32569702     1.58634296    -0.08834725    -0.88068029
Ti      4.49596802     2.32194198     2.31448101     0.86857116    -0.83942744     0.82757876
Ti      1.46999598     7.09987702     2.32957902    -1.01471041    -0.48472872    -0.53078799
Ti      1.54752701     2.35409199     2.24425702    -1.40924813    -1.74156720     0.59681394
Ti      3.02843801     4.41979301     0.04262099    -0.54756110     1.17408467     0.32446768
Ti      2.92276200     9.24147201     4.51302102    -1.82054972     0.25776810     0.72609317
Ti      0.02517201     4.68568002     0.09567498     0.95893853     1.51744765    -0.47088563
Ti      5.72291702     0.04296898     0.01500800     2.65541473     0.58915488    -0.11766092
O       4.38889700     5.54009199     0.81198502     0.40860629     1.06200355     0.97703705
O       4.32981700     0.99098399     0.86329902     0.59298017    -0.12400975    -0.02087505
O       1.54788500     5.72113501     0.96933101     0.20712198    -1.58658901    -0.73195529
O       1.37470502     0.92535098     0.93298098     0.31344099     0.10925598    -0.32688632
O       4.36828602     8.27275802     3.68663698     0.52190894     0.44994553     0.92163155
O       4.53235700     3.66809397     3.88109200    -0.30209959    -0.54507484    -1.32551987
O       1.43359901     8.45157299     3.72367399    -0.14681056    -0.58217742     0.09410421
O       1.61069701     3.81507899     3.68304598    -0.69690034    -0.14590682     0.38170997
O       3.01928599     1.27432798     3.17531502    -0.02748253     1.28762771    -0.37322533
O       0.10014399     6.10126298     3.31781002    -0.67244297    -0.25651829    -0.32089153
O       0.08682502     1.36551300     3.20017100    -1.15878146     0.46258071     0.20339259
O       3.02594500     7.86708799     1.44076698     0.06582078    -0.23056710     0.42721595
O       2.97177101     3.34432301     1.51039898     0.76091569    -0.60331395     0.14880137
O       0.00374202     7.78252203     1.46356801    -1.11972433     1.36288650    -1.04753287
O       0.03262198     3.40726399     1.47519901    -0.02375109    -1.04452853     0.51805485
