# total energy = -19924.78622839 eV

CRYSTAL
PRIMVEC
        4.98827156     0.00000000     0.00000000
        2.49838803     4.68442684     0.00000000
        0.00000000     0.00000000     9.23875654
PRIMCOORD
24 1
Ti      3.28855098     2.77598701     3.42751280     5.34256563    -5.28615406     1.22834628
Ti      4.19810875     1.90843995     5.81124384    -5.34256563     5.28615406    -1.22834628
Ti      5.31990864     1.90844162     1.19182861   -11.22350504     3.07479755     2.37351605
Ti      2.16675124     2.77598556     8.04692808    11.22350504    -3.07479755    -2.37351605
Ti      2.03935715     0.43377375     1.19186567     5.34234169    -5.28688452    -1.22862653
Ti      5.44730267     4.25065339     8.04689107    -5.34234169     5.28688452     1.22862653
Ti      0.91755717     0.43377195     5.81120678    11.22196006    -3.07553083     2.37280488
Ti      6.56910263     4.25065515     3.42754981   -11.22196006     3.07553083    -2.37280488
O       2.45854439     1.64946636     4.71446677    -1.26566637     0.32245837    -1.51660870
O       5.02811539     3.03496064     4.52428988     1.26566637    -0.32245837     1.51660870
O       1.79508052     1.64948522     0.09511818     2.48532848     0.26852329    -2.46199211
O       5.69157932     3.03494182     9.14363816    -2.48532848    -0.26852329     2.46199211
O       3.77892147     0.69274719     0.09508820     1.26676037    -0.32075887    -1.51563322
O       3.70773830     3.99167976     9.14366815    -1.26676037     0.32075887     1.51563322
O       4.44238540     0.69272837     4.71449670    -2.48808599    -0.26658287    -2.46233356
O       3.04427433     3.99169864     4.52425989     2.48808599     0.26658287     2.46233356
O       1.70089665     2.84933392     2.49561863     0.33210360    -3.92886975    -3.24205533
O       5.78576313     1.83509308     6.74313796    -0.33210360     3.92886975     3.24205533
O       3.65408477     1.83504933     2.12378903     2.66010160    -2.80094617    -4.38627714
O       3.83257501     2.84937767     7.11496741    -2.66010160     2.80094617     4.38627714
O       0.45170273     0.50712047     2.12375954     0.33325880    -3.92869414     3.24278835
O       7.03495704     4.17730647     7.11499690    -0.33325880     3.92869414    -3.24278835
O       2.58338109     0.50716423     6.74316740    -2.66041347     2.80100427    -4.38707598
O       4.90327868     4.17726272     2.49558914     2.66041347    -2.80100427     4.38707598
