# total energy = -19071.94594035 eV

CRYSTAL
PRIMVEC
        5.93400000     0.00000000     0.00000000
        0.00000000     9.29699974     0.00000000
        0.00000000     0.00000000     4.64899994
PRIMCOORD
22 1
Ti      4.42389302     6.85909502     2.47232802    -1.13960667     0.53493698    -0.17412186
Ti      4.29177699     2.44906301     2.20116701     0.72978116    -1.16758337     1.23227364
Ti      1.46510199     7.16218399     2.51419499     1.17052703     1.12956831     1.09491060
Ti      1.57786400     2.32967802     1.96370999    -0.02332943     1.59965613     0.46285402
Ti      2.97982800     4.48917201     4.35995402    -1.27275696     1.68096833     1.31982385
Ti      3.04258101     0.03509398     0.20353200     0.24234199    -0.55109071    -1.37098702
Ti      5.76724800     4.63032401     4.49409003    -0.18858766    -1.28301206     0.73982698
Ti      5.93351099     9.22836302     0.33483299     0.03712032    -1.91260090    -0.08012383
O       4.39853802     5.55170601     0.72886102     0.85076370    -0.69173294     1.66829716
O       4.54868799     0.78005600     1.25306500    -0.29374196     0.32394138    -0.72489401
O       1.58250298     0.57253301     1.45311602    -0.43388950     0.12799033    -1.60878278
O       4.55417900     8.32532601     3.97989400    -0.04728646     1.36905946     0.27330323
O       4.27320599     4.08908501     3.22737003     2.47446788    -0.95070303    -1.05463888
O       1.44153598     8.51432400     3.80566302     0.14034449     1.02157526     1.04727601
O       1.75652302     3.83528499     3.14996801    -1.15520428     0.45970210     0.95460879
O       2.90325298     6.47743800     3.62295198    -0.47031202    -2.13992533    -1.13696821
O       3.08273599     1.53353800     3.35999603     0.57369329    -0.45059525    -0.16902541
O       0.03679798     6.09075199     3.34213799     0.94435986    -0.03009734    -0.83703709
O       2.97234099     7.65650899     1.39745298    -0.32641041     0.25753542     0.39269939
O       3.16077402     2.78576801     0.85247899    -1.59479778     2.24027758    -0.18811895
O       5.83424501     8.07278501     1.83579102     0.04116003    -1.46233192    -1.42487248
O       0.05999600     3.13521201     1.17781499    -0.25863688    -0.10553817    -0.41630315
