# total energy = -19075.99177345 eV

CRYSTAL
PRIMVEC
        7.60600008     0.00000000     0.00000000
        0.00000000     7.60600008     0.00000000
       -1.89786986    -1.89786986     4.85670466
PRIMCOORD
22 1
Ti      3.70351001     6.64805998     1.37299599    -0.74732484     0.15016019    -1.59091824
Ti      3.86035000     2.92060798     1.18431303     0.01225208    -0.17112061     1.28572869
Ti      0.03575899     6.56886898     0.97239198     0.48464053     0.33751989     1.84656132
Ti      0.08893501     2.79336102     1.07115498     0.25733847    -0.29259833     0.42461939
Ti      5.79759520     2.84752421     3.53138082    -0.51807028    -0.11375516    -0.39538208
Ti      5.91945022    -0.92653078     3.51673880     0.18747926    -0.03030689     1.22661669
Ti      1.89657322     2.91844725     3.70030780     0.53642745    -0.75940491    -0.78035118
Ti      1.37909121    -0.96866880     3.98790780     1.26280858     0.55976639    -2.08275246
O       3.55845998     4.76043102     0.85796502     0.45857930     0.58556768    -0.15424902
O       4.01982597     0.97489600     0.89836802    -0.91368556    -0.58299837     0.55173837
O       0.23120299     4.66640702     0.71074400    -0.19650435     1.11421574    -0.19203525
O      -0.08455797     0.88868302     0.60960298     0.12571079     0.42077070     0.85026130
O       5.71801324     4.73772821     3.99206280     0.18587489     0.16879427    -1.40986546
O       5.69797224     0.95982625     3.91505179     0.29101710    -0.98721785    -0.32939623
O       1.81582723     4.79254520     4.23172479    -0.38608959     0.46506568    -0.37596947
O       2.01627322     0.97827723     4.13916079    -0.68243788    -0.51622088    -0.46875676
O       3.85119020     2.97616323     3.26349082    -0.18325827    -0.11463011    -0.34121174
O       0.05666520     2.86842121     3.17209180     0.62929007    -0.07691766     0.02431287
O       5.54972799     6.45585598     1.69280098     1.57474599     0.09418263     0.13065503
O       5.87743900     2.97872900     1.52407001    -1.57752870    -0.14261477     0.55994971
O       1.84704699     6.70978697     1.89014203    -0.85723517    -0.05897110     0.91901314
O       1.95625500     2.70768902     1.61085201     0.05596985    -0.04928729     0.30143136
