# total energy = -4988.83151762 eV

CRYSTAL
PRIMVEC
        3.82233407     0.00000000     0.00000000
        1.29805623     3.59517563     0.00000000
       -2.56023002    -1.79761230     4.95693209
PRIMCOORD
6 1
Ti      0.97343197     2.69651962     1.23923308     0.00083818    -0.00083818     0.00000000
Ti      1.58672765    -0.89895676     3.71769912    -0.00083818     0.00083818     0.00000000
O       0.32455387     0.89878896     0.80744378    -0.00031290    -0.00022651    -1.26842259
O       2.23560556     0.89877378     4.14948852     0.00031290     0.00022651     1.26842259
O      -0.32452288    -0.89876724     3.28590983    -0.00022651    -0.00031290    -1.26842259
O       2.88468225     2.69632993     1.67102247     0.00022651     0.00031290     1.26842259
