# total energy = -19073.68561620 eV

CRYSTAL
PRIMVEC
        5.17600016     0.00000000     0.00000000
        0.00000000     5.50899976     0.00000000
        0.00000000     0.00000000     9.26300011
PRIMCOORD
22 1
Ti      1.91818202     3.47493502     3.16736699    -1.57878957     0.34153030     0.34596520
Ti      3.35543600     2.10344898     5.80677701    -0.14035812     0.84814348     0.50955144
Ti      4.53293799     2.21587100     1.25840398     1.00628490     0.08506781    -1.97968332
Ti      0.75124701     3.08282902     7.90916002     0.81821198    -0.00536281     0.23496909
Ti      1.95937799     0.71991898     1.34376001    -1.21708690    -1.14758892    -4.01559772
Ti      3.26538099     4.93321999     8.13653399     1.24285836     0.84814863     1.06295049
Ti      0.83042701     0.07954698     6.25098601     0.86116176     1.15535854    -0.15206281
Ti      4.28289703     5.19743602     3.45381899     1.09556880    -1.54246629     0.22265042
O       3.32108901     3.62958897     4.32978102     0.41352996    -1.43081044     1.85724580
O       1.01938398     2.02552599     0.11235602     0.24741658    -1.24433752     0.62082343
O       4.41153298     3.54734398     8.85936503    -0.42173975    -0.03227996     0.43951174
O       3.69752501     0.75835799     0.27736900    -0.12466513     0.35604701    -0.61035389
O       1.90425301     4.64355498     9.13038998    -2.85285779    -0.15056771     1.46561805
O       3.33491302     0.78106599     4.52287198     0.47689045     1.08022163     0.75025718
O       0.77390998     4.83694698     4.60007798    -0.40966250    -0.32171120    -0.12560281
O       0.07770899     3.55762198     2.30357599     0.53320508    -0.04556768     1.13276934
O       5.14406802     1.88651002     6.40526801    -0.04922225    -0.33615541     0.18623664
O       2.76210199     2.13455201     2.07183800     0.41830218     2.28771676     1.78757453
O       2.48042999     3.56978602     7.07445699    -0.96428283    -0.85301496    -2.49227226
O       0.22252898     0.71680302     2.22501899     0.17637774     0.57704575     0.63082039
O       2.36088900     0.90339600     7.13689599     0.24772177     0.02448488    -1.75953844
O       2.69303298     4.90516200     2.38061599     0.22113552    -0.49390164    -0.11183223
