# total energy = -19517.71458281 eV

CRYSTAL
PRIMVEC
        7.60600008     0.00000000     0.00000000
        0.00000000     7.60600008     0.00000000
       -1.89786986    -1.89786986     4.85670466
PRIMCOORD
23 1
Ti      3.86035301     6.87245098     1.18797202     0.43398463    -0.58892220    -0.91631760
Ti      3.75649700     2.92496401     1.34805603    -0.32978807     0.99225618     0.87724016
Ti      0.02100701     6.57629799     1.10581202    -0.60301827    -0.39751044    -0.06892230
Ti     -0.11554400     2.68058303     1.17885499     0.66330604     1.24506591    -0.16848265
Ti      5.69141721     2.68150120     3.69006282    -0.42721569     0.09509357     0.65825150
Ti      5.65626624    -1.08453078     3.51935982     0.55349521     0.24166630     0.33026707
Ti      2.09081821     2.80828424     3.82497683     0.18319760     2.38584655    -0.42281113
Ti      1.86663322    -0.84154778     3.55659479    -0.12464610    -1.00125633    -0.22426687
O       4.06837402     4.79802102     1.04813201    -1.49003582     0.23543909    -0.71443733
O       3.76857299     1.15067000     0.65278898    -0.29224198    -1.15305226     0.72281938
O      -0.07391199     4.65712901     0.82174898     0.68105463     0.78197843    -0.36486076
O       0.11632999     0.92491500     0.62747700    -0.20405928    -1.45927925     0.20614187
O       5.67042221     4.61911625     3.81924383     0.30345585     0.75450259     1.10562696
O       5.71692525     0.82895521     4.05787980     0.75016693     0.74273541    -0.65279254
O       1.99608024     4.79669025     4.02773781    -0.61629494     0.81761651     0.64858312
O       1.71209621     1.08725425     4.05979283    -1.03087571    -1.65412909     0.33271476
O       3.86238622     2.67033921     3.68450784    -0.67020714     0.08727176    -2.45232270
O       3.80307820    -0.67332275     3.15965079    -0.58237925    -0.54390293    -0.23631995
O      -0.14212277     6.41935820     3.02315984     1.70327651     0.67036218     0.52132453
O       5.75191397     6.97030998     1.38730500    -0.96871413    -0.50356411     0.74945551
O       5.63622403     2.83514501     1.67302102     1.20062643    -0.95522843    -0.23708948
O       1.86627603     6.82210601     1.59430300     0.47429260    -0.29848385    -0.09946959
O       1.72077599     2.94725698     1.86282902     0.39261994    -0.49450585     0.40566855
