# total energy = -19517.87000831 eV

CRYSTAL
PRIMVEC
        5.93400000     0.00000000     0.00000000
        0.00000000     9.29699974     0.00000000
        0.00000000     0.00000000     4.64899994
PRIMCOORD
23 1
Ti      4.53697402     7.07634102     2.26310499     0.84191807    -0.86401620     0.45698830
Ti      4.42314101     2.22519198     2.32487299    -0.93801231     0.28399876    -0.18897975
Ti      1.45974597     7.13150600     2.18010099    -0.18745637    -0.58742556     0.42603221
Ti      1.41225200     2.30556199     2.38707000     1.32533141    -0.14930042    -0.61042691
Ti      3.01206500     4.59280402     0.13478901    -0.22891440    -1.47055380     0.67704448
Ti      2.90555898     9.20651202     4.58204902     0.98055972     1.79448515     0.81124351
Ti      0.02665498     4.63349801     0.04573197     0.01113879     0.20010723    -1.03968277
Ti      5.87702301     0.10389300     4.61830602     0.15454315     0.00749554     0.97425460
O       4.39868498     5.57520798     0.94143702     0.22646259     0.21479338     0.02973662
O       4.37825101     0.91205398     0.82486499     1.22791202     0.32414835     0.98780097
O       1.52169199     5.64207599     0.97097300     0.08404657    -0.40304268    -0.50822269
O       1.61194100     0.94107501     1.01936901    -0.91401929    -1.09831063    -1.01947698
O       4.56691799     8.35283000     3.69480801    -0.57529843    -0.08298624     0.42586097
O       4.43681998     3.76324602     3.72815898    -0.15293210     0.23407666     0.11894365
O       1.57747198     8.39945300     3.74091702    -2.00399362    -1.44471472    -1.04173708
O       1.45407198     3.68295999     3.86367900     0.19279938     0.50952753    -0.56356751
O       2.89979200     1.33747401     3.34243501     0.82857610     1.23329591    -1.39683176
O       0.03115298     5.99893799     3.21291899    -0.05244255     0.64805759    -0.25677051
O       0.01865699     1.29682399     3.20509600    -0.48061006     0.61375675    -0.07182405
O       3.02365800     7.86384101     1.31903700    -0.13139011    -1.12540287     1.55041126
O       2.96042302     3.20452999     1.41777597     0.28886200     0.24623875     0.49892558
O       5.92947802     8.00114499     1.47605897    -0.00108346     0.11069400    -0.65635223
O       5.93017098     3.07841102     1.35773499    -0.49599709     0.80507698     0.39663009
