# total energy = -19915.68731524 eV

CRYSTAL
PRIMVEC
        6.44381187     0.00000000     0.00000000
        0.00003532     6.85816447     0.00000000
        0.00000000     0.00000000    11.53300633
PRIMCOORD
24 1
Ti      2.33559280     4.06414192     4.27866318     0.04805702    -0.90279204     0.64957326
Ti      4.10825438     2.79402261     7.25434349    -0.04805702     0.90279204    -0.64957326
Ti      5.55738593     2.79402497     1.48779407     0.04733377     0.90233259    -0.64939894
Ti      0.88646126     4.06413982    10.04521272    -0.04733377    -0.90233259     0.64939894
Ti      2.33557528     0.63505982     1.48784032     0.04805702    -0.90279204    -0.64957326
Ti      4.10827191     6.22310491    10.04516647    -0.04805702     0.90279204     0.64957326
Ti      0.88644373     0.63505726     7.25429724    -0.04733377    -0.90233259    -0.64939894
Ti      5.55740346     6.22310747     4.27870942     0.04733377     0.90233259     0.64939894
O       2.03951958     2.41487636     5.88520498     1.41592658     1.31242909     0.00451769
O       4.40432761     4.44328824     5.64780169    -1.41592658    -1.31242909    -0.00451769
O       1.18244891     2.41490398     0.11873877    -1.41580419     1.31293740     0.00364403
O       5.26139835     4.44326062    11.41426757     1.41580419    -1.31293740    -0.00364403
O       4.40431008     1.01420594     0.11870135    -1.41592658    -1.31242909     0.00451769
O       2.03953710     5.84395859    11.41430499     1.41592658     1.31242909    -0.00451769
O       5.26138082     1.01417832     5.88524240     1.41580419    -1.31293740     0.00364403
O       1.18246630     5.84398628     5.64776427    -1.41580419     1.31293740    -0.00364403
O       0.23414005     4.17152441     3.11535281     0.49927397    -0.28887152     0.33269290
O       6.20970714     2.68664012     8.41765386    -0.49927397     0.28887152    -0.33269290
O       3.45605115     2.68657620     2.65118719     0.49915852     0.28910960    -0.33290579
O       2.98779604     4.17158833     8.88181928    -0.49915852    -0.28910960     0.33290579
O       0.23412252     0.74244211     2.65115036     0.49927397    -0.28887152    -0.33269290
O       6.20972467     6.11572242     8.88185610    -0.49927397     0.28887152     0.33269290
O       2.98777851     0.74250603     8.41769062    -0.49915852    -0.28910960    -0.33290579
O       3.45606867     6.11565850     3.11531598     0.49915852     0.28910960     0.33290579
