# total energy = -19948.34824838 eV

CRYSTAL
PRIMVEC
        5.54340563     0.00000000     0.00000000
        2.00361807     5.54922221     0.00000000
        0.00000000     0.00000000    10.08170142
PRIMCOORD
24 1
Ti      3.19656021     3.28846385     3.74023934     1.04032760    -2.77906813     1.03746391
Ti      4.35046368     2.26075820     6.34146219    -1.04032760     2.77906813    -1.03746391
Ti      5.59710602     2.26076009     1.30057118    -2.39980585    -0.52696887     0.73672674
Ti      1.94991791     3.28846213     8.78113047     2.39980585     0.52696887    -0.73672674
Ti      2.19475132     0.51385290     1.30061160     1.04032760    -2.77906813    -1.03746391
Ti      5.35227260     5.03536927     8.78109005    -1.04032760     2.77906813     1.03746391
Ti      0.94810890     0.51385085     6.34142177     2.39980585     0.52696887     0.73672674
Ti      6.59891502     5.03537137     3.74027976    -2.39980585    -0.52696887    -0.73672674
O       2.46003091     1.95397541     5.14461507     1.19880146     1.76272430    -0.93255797
O       5.08699298     3.59524665     4.93708646    -1.19880146    -1.76272430     0.93255797
O       1.72272845     1.95399779     0.10379679     0.17215676    -0.63729855     0.91371590
O       5.82429551     3.59522431     9.97790446    -0.17215676     0.63729855    -0.91371590
O       4.08518407     0.82063558     0.10376408    -1.19880146    -1.76272430    -0.93255797
O       3.46183983     4.72858648     9.97793717     1.19880146     1.76272430     0.93255797
O       4.82248659     0.82061319     5.14464778    -0.17215676     0.63729855     0.91371590
O       2.72453726     4.72860888     4.93705375     0.17215676    -0.63729855    -0.91371590
O       1.42011880     3.37535143     2.72331907     0.37454533     1.24208189     1.13931923
O       6.12690510     2.17387063     7.35838246    -0.37454533    -1.24208189    -1.13931923
O       3.75800397     2.17381894     2.31756374     1.28782363     0.79371655    -0.02789082
O       3.78901993     3.37540312     7.76413763    -1.28782363    -0.79371655     0.02789082
O       0.41830988     0.60074036     2.31753152     0.37454533     1.24208189    -1.13931923
O       7.12871401     4.94848170     7.76416984    -0.37454533    -1.24208189     1.13931923
O       2.78721101     0.60079205     7.35841456    -1.28782363    -0.79371655    -0.02789082
O       4.75981289     4.94843001     2.72328692     1.28782363     0.79371655     0.02789082
