# total energy = -19883.69567849 eV

CRYSTAL
PRIMVEC
        9.19990008     0.00000000     0.00000000
        0.00002860     3.26382526     0.00000000
        0.00000000     0.00000000    14.63626507
PRIMCOORD
24 1
Ti      3.33453802     1.93413971     5.42995007     0.18644696     0.10778968     2.01886155
Ti      5.86539028     1.32968523     9.20631543    -0.18644696    -0.10778968    -2.01886155
Ti      7.93433113     1.32968628     1.88812420     0.18702108    -0.10704381    -2.01786679
Ti      1.26559723     1.93413879    12.74814143    -0.18702108     0.10704381     2.01786679
Ti      3.33452410     0.30222715     1.88818290     0.18745560     0.10887649    -2.01782591
Ti      5.86540427     2.96159792    12.74808273    -0.18745560    -0.10887649     2.01782591
Ti      1.26558325     0.30222603     9.20625674    -0.18736021     0.10770689    -2.01885306
Ti      7.93434512     2.96159903     5.43000877     0.18736021    -0.10770689     2.01885306
O       2.91183639     1.14924826     7.46877421     1.23562353     0.45844895    -1.85103247
O       6.28809198     2.11457675     7.16749130    -1.23562353    -0.45844895     1.85103247
O       1.68818730     1.14926151     0.15068858    -1.23410658     0.45870477    -1.85312766
O       7.51174113     2.11456350    14.48557649     1.23410658    -0.45870477     1.85312766
O       6.28807799     0.48266406     0.15064105    -1.23287630    -0.45772852    -1.85176189
O       2.91185038     2.78116089    14.48562402     1.23287630     0.45772852     1.85176189
O       7.51172714     0.48265087     7.46882168     1.23462491    -0.45784834    -1.85074425
O       1.68820110     2.78117414     7.16744383    -1.23462491     0.45784834     1.85074425
O       0.33427082     1.98524353     3.95362041    -1.41748029     0.51460186     0.98747444
O       8.86565755     1.27858141    10.68264504     1.41748029    -0.51460186    -0.98747444
O       4.93423302     1.27855116     3.36455884    -1.41792612    -0.51462012    -0.99017359
O       4.26569534     1.98527385    11.27170641     1.41792612     0.51462012     0.99017359
O       0.33425683     0.35333090     3.36451213    -1.41780065     0.51554906    -0.99056337
O       8.86567153     2.91049410    11.27175313     1.41780065    -0.51554906     0.99056337
O       4.26568142     0.35336116    10.68269169     1.41783151     0.51548298    -0.98852063
O       4.93424695     2.91046379     3.95357369    -1.41783151    -0.51548298     0.98852063
