# total energy = -19517.01408596 eV

CRYSTAL
PRIMVEC
        5.17600016     0.00000000     0.00000000
        0.00000000     5.50899976     0.00000000
        0.00000000     0.00000000     9.26300011
PRIMCOORD
23 1
Ti      1.86360902     3.22278100     3.36059601    -1.47228698     0.78696046     1.56687996
Ti      3.40234698     2.21653300     5.79390101    -0.77508633     0.30732150    -0.88234842
Ti      4.35840602     2.00266802     1.51279901     2.39515446    -0.34679824    -0.98555100
Ti      0.94207097     3.34645703     7.84818599     0.23769009     0.21322398     1.70014054
Ti      1.80466498     0.44391801     1.27680802     0.67262475     1.11742525    -1.68902643
Ti      3.32697600     5.22039898     7.85490802    -0.07690044     0.89491187     1.34843149
Ti      0.68786698     0.62318300     5.78178502     0.01892358    -1.00900153    -2.48353976
Ti      4.32409702     4.86551398     3.44544201     1.64125917     0.07968417     1.59390509
O       1.81136198     1.95201200     4.71692201    -1.38693301    -0.29869519     0.68027712
O       3.39473403     3.73985602     4.60288702     0.34690751    -0.60139514    -0.05090195
O       0.63318699     2.47051802     0.29608600     0.09904664    -0.02553826    -1.24783859
O       3.55265401     1.05065698     0.14045200    -1.24264779    -1.36488476    -1.36904378
O       1.57164199     4.84396202     9.13844300     0.64035405    -0.03384961    -1.24483451
O       4.18710298     0.78620197     4.76097703     0.37617439     0.41982993    -0.23203443
O       0.94345398     4.71357100     4.39113901    -0.58393065     0.19691007     0.41229531
O       0.00012499     3.12533698     2.78454598     0.35221067     1.45355417    -0.07257610
O       5.16969602     2.00609100     6.86480998    -0.92771941     1.00192713     0.03768159
O       2.76209802     1.80856602     2.41223698    -0.67611631     1.02168247    -0.29310433
O       2.76334598     3.58467199     7.15326799    -0.96382569    -2.02823014     0.84216901
O       0.24054302     0.61436299     2.24738302    -1.22079083    -0.60681631    -0.42997423
O       5.07862699     4.82736898     7.12066602    -0.19761943    -0.54303390     0.58850645
O       2.36224698     0.50596902     6.57339101     1.44043048     0.90869787     1.32854040
O       2.68845401     4.74842902     2.27315200     1.30308133    -1.54388580     0.88194656
