# total energy = -19961.17358835 eV

CRYSTAL
PRIMVEC
        7.60600008     0.00000000     0.00000000
        0.00000000     7.60600008     0.00000000
       -1.89786986    -1.89786986     4.85670466
PRIMCOORD
24 1
Ti      3.76622598     6.58289498     1.25237602     0.49726825    -1.10392566     0.15996433
Ti      3.76725401     2.76798199     1.18395202     0.70323708     0.82734068     1.66622922
Ti      0.05872597     6.71596898     1.29972299    -0.54869316     0.01022425    -1.34435372
Ti      0.02637202     2.92592801     1.13210900    -0.75893183     0.29023523    -0.14641924
Ti      5.70800724     3.01655221     3.61203881    -1.12545352     0.01972397    -0.35362863
Ti      5.73724222    -0.88023979     3.64435281    -0.82984982    -0.26626431    -0.44492905
Ti      1.78711524     2.77229923     3.64552282     0.96805438     0.48779090     0.07982893
Ti      1.86086122    -1.03097577     3.71985079     1.11275046    -0.56570050    -1.03749116
O       3.76540703     4.61364201     0.72829601    -0.44211909     1.16268645     0.56607048
O       3.77619102     0.86141103     0.75253900    -0.16668956    -0.34212294     1.28498127
O       0.18912202     4.91451997     0.71476199    -0.78237644    -1.81036943     0.28248438
O       0.12158900     0.96675201     0.78841700    -0.58687148     1.25090669    -0.32266020
O       5.87394622     4.89855824     4.02908081    -0.14824935    -0.52867094     0.03689689
O       5.77094821     1.10483722     3.88292179    -0.52901650    -1.60272629     1.63335354
O       1.80436223     4.65182221     4.10168181    -0.23440499     0.23336498     0.00620690
O       1.94942924     0.87510523     4.12566280    -0.12085398    -0.25266780    -1.33423334
O       3.79865920     2.88659623     3.19473979    -0.89249015    -0.02337931     0.10090915
O       3.78296523    -1.22890976     3.24415479     0.30102590     1.15599309    -0.05047874
O      -0.07804777     2.88586824     3.10882083     1.12389954     0.02911441     0.18878126
O       0.02779424    -0.80207676     3.20574080    -0.25397109    -0.06444910     0.45792110
O       5.70371302     6.56612302     1.60205798    -0.06250226     0.37644075     0.35354661
O       5.64212800     2.94428602     1.61459700     0.79422203    -0.23338092    -0.87817012
O       1.89410001     6.45631700     1.70511499     0.74236415     0.77211876    -0.12326464
O       1.79369402     2.74661498     1.68127799     1.23965116     0.17771677    -0.78154520
