# total energy = -19075.09576245 eV

CRYSTAL
PRIMVEC
        7.60600008     0.00000000     0.00000000
        0.00000000     7.60600008     0.00000000
       -1.89786986    -1.89786986     4.85670466
PRIMCOORD
22 1
Ti      3.93754399     6.55560700     1.15419501     0.02494717     0.92380002    -0.49797479
Ti      3.67447601     2.79263599     1.15137402     0.88443925    -0.03626594     0.30404489
Ti      0.21526798     6.68389603     1.05718200    -0.41952552     1.63885519     1.65690588
Ti     -0.11252600     2.92061799     1.22629001    -1.70267256    -1.31351924    -0.74012806
Ti      5.65899320     2.80005622     3.62564279    -1.80839611    -0.10037950    -0.53295620
Ti      6.17617125    -0.83446379     3.63082683    -0.17477132     0.05471490     1.55136206
Ti      1.76127122     2.85131423     3.62952579     1.33109351    -1.18939071     0.20148869
Ti      1.51765622    -1.17402275     3.74831481     0.55794708     2.20758136    -1.54450415
O       3.75705100     4.75639700     0.91206599    -0.21289256    -0.68838793    -1.05804765
O       4.03595302     0.86590702     0.62512301    -0.89250686     0.79242560     1.99247405
O      -0.22334100     4.90865600     0.71723499     0.16889609    -1.03720140    -0.17004948
O      -0.28862698     0.96981600     0.97283200     1.26077870     0.80491320    -0.43042623
O      -1.38922178     4.99683022     4.14913483    -0.04014316    -1.06637572    -1.80733604
O       5.60387320     0.94918825     3.99818781     0.66098125     0.72631352     0.77265458
O       2.27443023     4.73001524     3.99664383    -1.13070911    -0.98278449     0.72365499
O       1.74495023     0.92223223     3.95875379    -0.57883524    -0.04655755     0.82533213
O       3.72968121     2.70443024     3.23443380    -0.52672719     0.27606588    -0.52128570
O      -0.14099679     3.01851525     3.19016183     0.53831258    -0.35163705     0.69155142
O       5.68842101     6.73480102     1.89769899     0.01359831    -0.78373861    -0.54352138
O       5.52113401     2.97175000     1.62026099     0.71046497    -0.06839368     0.12504205
O       2.07635601     6.57201801     1.85412903    -0.62418335     0.44192960     0.13215244
O       1.67410901     2.97129200     1.72206200     1.95990356    -0.20196794    -1.13043349
