# total energy = -19073.23412649 eV

CRYSTAL
PRIMVEC
        5.93400000     0.00000000     0.00000000
        0.00000000     9.29699974     0.00000000
        0.00000000     0.00000000     4.64899994
PRIMCOORD
22 1
Ti      4.31227901     6.81552601     2.26519301     0.92837762     0.26658287    -0.52291424
Ti      4.32787101     2.44928600     2.01175997     4.82117297    -0.37367810     2.95677127
Ti      1.51359098     7.24255300     2.63199302     0.15417960     0.05862426     0.79701605
Ti      1.58993199     2.27752898     2.20784899    -2.02212993    -0.52823360     1.14098633
Ti      3.06667599     4.52838600     4.41861199    -1.34799723     1.50919389     2.51365459
Ti      3.02924299     0.20034402     4.55189401    -0.08387764    -1.13773388     0.39882607
Ti      5.89559999     4.55497901     4.36079001    -0.11227343    -0.41124296     0.16476664
Ti      5.84796002     9.17057798     0.47616798     0.22600828     0.42287412    -0.98017431
O       4.42089597     5.40694798     0.96803199    -0.04894765     0.08596975     0.16507285
O       4.30959799     0.73614498     1.31141801     1.03231887    -0.23074014    -1.09262078
O       1.59218200     0.60635902     1.32978502    -0.87913712     1.25348705    -0.40930229
O       4.50866298     8.43523899     3.86591202    -0.10586161     1.24722152     0.39050392
O       4.30720399     4.01578899     3.40578700     2.81186179    -2.09392827    -2.26434954
O       1.44195699     8.43191702     3.98208500     0.13234630     0.71575913    -0.72720132
O       1.62599902     3.87456301     3.45856799    -1.57777038     0.43238284     0.64531397
O       2.97655901     6.21829799     3.38402798    -0.80596221    -1.04206490     0.57720670
O       3.09426798     1.71209902     3.47802600     0.17681946    -0.69580479    -0.48444769
O       5.87398098     6.17925498     3.40482798     1.12467216    -0.73074250    -0.14446211
O       2.96280998     7.82750998     1.46413402    -0.13593505    -0.89540732     0.48018558
O       2.94052500     2.86426998     1.15378500    -2.31735362     3.43683112    -3.44973961
O       0.09067701     7.77884599     1.53768299    -1.09724696    -1.05892800    -0.06980882
O       0.15677199     3.16491700     1.24596101    -0.87326394    -0.23042235    -0.08528378
