# total energy = -4990.11454910 eV

CRYSTAL
PRIMVEC
        3.71848300     0.00000000     0.00000000
        0.55464436     3.67688529     0.00000000
       -2.13659719    -1.83847148     4.75909133
PRIMCOORD
6 1
Ti      0.41584805     2.75780451     1.18977257     0.00145524    -0.00145524     0.00000000
Ti      1.72068251    -0.91939036     3.56931824    -0.00145524     0.00145524     0.00000000
O       0.13870020     0.91921582     0.77521696    -0.00016686     0.00014064     0.15307505
O       1.99783019     0.91919818     3.98387385     0.00016686    -0.00014064    -0.15307505
O      -0.13867745    -0.91919625     3.15476263     0.00014064    -0.00016686     0.15307505
O       2.27520779     2.75761025     1.60432818    -0.00014064     0.00016686    -0.15307505
