# total energy = -4987.71441811 eV

CRYSTAL
PRIMVEC
        2.83252933     0.00000000     0.00000000
        0.87884127     4.35026472     0.00000000
       -0.00000585    -0.00005811     4.46073035
PRIMCOORD
6 1
Ti      1.85568232     2.17510331     2.23036527     0.00000000     0.00000000     0.00000000
Ti      0.00000000     0.00000000     0.00000000     0.00000000     0.00000000     0.00000000
O       1.58753670     0.84779124     0.86933070    -2.71260123     1.30806876     1.40932835
O       2.12382795     3.50241538     3.59139985     2.71260123    -1.30806876    -1.40932835
O       0.26814323     1.32728853     3.09969678     2.71207184    -1.30664385     1.40769544
O       0.61069218     3.02291798     1.36103377    -2.71207184     1.30664385    -1.40769544
