# total energy = -19960.79085653 eV

CRYSTAL
PRIMVEC
        5.93400000     0.00000000     0.00000000
        0.00000000     9.29699974     0.00000000
        0.00000000     0.00000000     4.64899994
PRIMCOORD
24 1
Ti      4.40773301     7.00520801     2.35661701     0.44214249    -0.45940823    -0.02144378
Ti      4.49399001     2.25785502     2.32160802     0.20948662     0.77692390     0.44570784
Ti      1.49127102     7.02154900     2.34129701    -0.43971742    -0.49463467    -0.13449317
Ti      1.49257200     2.39324999     2.27675898    -0.38455181    -0.01986718     0.19999513
Ti      2.95562200     4.63173998     0.03087501     1.01496109     0.02038089     0.35055256
Ti      2.95774803     9.26724199     4.63211803    -0.29355376     0.11458871    -0.82591038
Ti      0.03529602     4.71500798     4.60427600    -1.03460484     0.10828308     0.53720392
Ti      5.91973502     9.28453201     0.08171402     0.33806754    -0.57941400    -0.49269323
O       4.40270699     5.50651702     0.91315498    -0.39941408     0.45306583     0.26724622
O       4.49746300     0.89134298     0.88906101    -0.44679516    -0.00691730    -0.70556162
O       1.43903302     5.47685801     1.02386902     0.60586217     0.18828761    -0.56469571
O       1.50166602     0.87237097     0.82104300    -0.18279419     0.09893094    -0.15449996
O       4.48491600     8.32690899     3.72969000    -0.10136784     0.92887641     0.37946026
O       4.46284401     3.68935198     3.81589101    -0.76365263    -0.18855295    -0.79034198
O       1.51554502     8.29880402     3.67263701     0.05140280     1.38654657     1.29042481
O       1.38320901     3.75594999     3.75690399     1.12748855    -0.41757482    -0.62193234
O       2.94763301     6.11582800     3.18863002     0.25990520    -0.85827466     0.64282719
O       2.86149899     1.28482802     3.16523001     1.01330401     0.78642156    -0.08918260
O       0.06005701     6.21092999     3.40068801    -0.48867767    -0.51559019    -1.15353255
O       0.06487401     1.39489901     3.00373199    -0.97709078    -0.99254286     1.86098753
O       3.03973399     7.97127701     1.44184999    -0.42146567    -0.56271313    -0.14040183
O       2.93806999     3.24659398     1.49243500     0.68417415     0.27394754    -0.95208962
O       5.90052002     7.85796900     1.36924598     0.36637977     0.20465372    -0.15411609
O       5.90538802     3.20427800     1.33410099    -0.17948775    -0.24541729     0.82648913
