# total energy = -19068.98680933 eV

CRYSTAL
PRIMVEC
        5.17600016     0.00000000     0.00000000
        0.00000000     5.50899976     0.00000000
        0.00000000     0.00000000     9.26300011
PRIMCOORD
22 1
Ti      1.63690600     3.37470599     3.22642999     1.91318428    -0.59056487     0.40762439
Ti      3.78271202     2.70720800     6.19266899    -1.45510352    -2.27665304     0.74968357
Ti      4.23145999     2.27921499     1.39582798     0.34833910    -0.85824664    -0.09176553
Ti      1.19008201     2.07095501     8.22267399     1.85324645    -0.45892100    -4.04493273
Ti      2.00433800     0.44855699     1.31108500     0.28969376     0.81361510    -1.42955034
Ti      3.24021501     5.31816199     7.77124600    -0.16671708     0.91573781     0.40154990
Ti      0.61623802     0.23666601     6.16458200    -0.53472923    -0.20411121    -1.62398341
Ti      4.42664099     5.15824801     3.32835699    -1.09510678    -0.07362562     2.11417829
O       2.96446302     3.40653600     4.89534503    -0.95230945     1.93222871    -2.92619725
O       0.88579001     1.96972600     0.59134600    -1.41252938     2.02241790     4.71027431
O       4.96864502     3.99206401     6.79263100    -0.61481373     2.17309848     0.83328173
O       3.32868202     1.32562701     0.02850900     0.59170696     0.61418561     0.88898470
O       1.59915799     0.18694901     8.60053401    -1.56101552    -2.15924460    -0.70237371
O       4.28493198     1.23096000     5.04070599     3.13860053    -2.13181966    -0.85011629
O       0.77398602     4.57552601     4.35385001    -0.42495826     1.59669602     1.35619006
O       0.03818400     3.69154298     2.27666103     0.57095429    -1.80455976     0.13647061
O       4.81058898     1.33921998     7.46722197    -0.57358710    -1.00496387    -1.01453043
O       2.90487602     1.82538100     2.58115602    -1.97677592    -0.68446468     0.62227662
O       2.18566101     3.43840401     7.62497299     3.30594161     1.94686472    -0.53127727
O       4.81491702     0.35974898     1.83422900     2.29588876     2.39888256    -1.08081761
O       2.26241399     1.24160202     6.29195301    -1.84103987    -2.15914099     1.68912259
O       2.86084498     4.44266098     2.19489298    -1.69886990    -0.00741121     0.38590782
