# total energy = -19068.00206578 eV

CRYSTAL
PRIMVEC
        5.17600016     0.00000000     0.00000000
        0.00000000     5.50899976     0.00000000
        0.00000000     0.00000000     9.26300011
PRIMCOORD
22 1
Ti      1.70195897     3.29354697     3.15694003     0.39100272    -1.00109950     2.10164750
Ti      3.67436298     2.70580197     6.11693002    -2.43780162     0.69034351    -0.52731366
Ti      4.33642098     2.19079397     1.36176600     0.14355143     1.78457997    -0.77649247
Ti      1.12471698     2.11058298     8.14858700     0.94387932    -0.62323307     0.16243567
Ti      2.16600599     0.46640402     1.47087002    -2.92189193    -1.29835770    -2.71460335
Ti      3.27870302     5.33258000     7.91057101    -0.39499564    -1.33151491    -0.73931199
Ti      0.57937903     0.22614501     6.13843901     1.44733236    -1.74821119    -0.23398847
Ti      4.46507402     5.20141400     3.43947803    -1.40305512    -0.91292605     0.51042587
O       3.01723300     3.83067998     4.52659701     1.90061853    -1.48296375     1.50956490
O       0.97532199     1.97379003     0.95940799     1.95545838     1.63026924    -3.92251783
O       4.67052899     4.12820100     6.88215001    -0.41928615    -0.48606466    -0.20259658
O       3.32678100     1.02734900     0.11612303    -0.36578764     0.91888381    -0.72944383
O       1.42411499     0.04039998     7.92890902     1.10568995    -0.68682984     3.25474064
O       4.40557698     1.11592602     5.24688298    -0.82347760     0.59649847    -2.98451709
O       0.80535300     4.86646401     4.37105002     0.13730030    -0.49604723    -0.03174799
O       0.06608598     3.63897399     2.35183600    -1.34708963     0.41478106     1.02199152
O       4.77567799     1.09460801     7.46674201    -3.07316927     3.12432833     1.36302997
O       2.79613798     1.66277001     2.53157301     0.73232347     2.04179991     3.89247731
O       2.18121502     3.41272002     7.18225399     1.50398895     1.53364149     1.67653549
O       4.94281000     0.59486598     1.89787600     0.49852989    -3.67859153     2.97474946
O       1.95815400     1.45560199     6.41753698     1.41231160    -0.68290659    -3.13373034
O       2.74566199     4.38240098     2.30401002     1.01456745     1.69361996    -2.47133499
