# total energy = -4987.22862326 eV

CRYSTAL
PRIMVEC
        3.04201839     0.00000000     0.00000000
        1.61866365     4.48312063     0.00000000
       -0.00001052    -0.00006315     4.84336416
PRIMCOORD
6 1
Ti      2.33033575     2.24152868     2.42168208     0.00000000     0.00000000     0.00000000
Ti      0.00000000     0.00000000     0.00000000     0.00000000     0.00000000     0.00000000
O       1.83646082     0.87368186     0.94390035    -1.93765734     1.04982603     0.97550673
O       2.82421069     3.60937550     3.89946386     1.93765734    -1.04982603    -0.97550673
O       0.49387051     1.36782129     3.36558340     1.93752210    -1.04970776     0.97541597
O       1.12478271     3.11523606     1.47778082    -1.93752210     1.04970776    -0.97541597
