# total energy = -19949.98488052 eV

CRYSTAL
PRIMVEC
        5.43831737     0.00000000     0.00000000
        1.96563479     5.44402368     0.00000000
        0.00000000     0.00000000     9.89057912
PRIMCOORD
24 1
Ti      3.13596192     3.22612331     3.66933433     1.31835189    -2.83441320     1.08484396
Ti      4.26799044     2.21790023     6.22124490    -1.31835189     2.83441320    -1.08484396
Ti      5.49099974     2.21790208     1.27591580    -2.89713580    -0.38643438     0.89222275
Ti      1.91295264     3.22612162     8.61466354     2.89713580     0.38643438    -0.89222275
Ti      2.15314466     0.50411161     1.27595545     1.31835189    -2.83441320    -1.08484396
Ti      5.25080772     4.93991204     8.61462388    -1.31835189     2.83441320     1.08484396
Ti      0.93013527     0.50410961     6.22120525     2.89713580     0.38643438     0.89222275
Ti      6.47381711     4.93991409     3.66937398    -2.89713580    -0.38643438    -0.89222275
O       2.41339526     1.91693322     5.04708682     0.96493100     1.59617666    -0.95460648
O       4.99055710     3.52709031     4.84349241    -0.96493100    -1.59617666     0.95460648
O       1.69007009     1.91695518     0.10182908     0.32635822    -0.65894673     0.74530446
O       5.71388233     3.52706840     9.78874987    -0.32635822     0.65894673    -0.74530446
O       4.00773982     0.80507851     0.10179699    -0.96493100    -1.59617666    -0.95460648
O       3.39621253     4.63894503     9.78878197     0.96493100     1.59617666     0.95460648
O       4.73106504     0.80505654     5.04711891    -0.32635822     0.65894673     0.74530446
O       2.67288726     4.63896701     4.84346031     0.32635822    -0.65894673    -0.74530446
O       1.39319712     3.31136372     2.67169217     0.31307743     0.88926110     0.78501594
O       6.01075524     2.13265981     7.21888705    -0.31307743    -0.88926110    -0.78501594
O       3.68676219     2.13260910     2.27362888     1.38415184     0.44987097    -0.36593856
O       3.71719017     3.31141443     7.61695018    -1.38415184    -0.44987097     0.36593856
O       0.41037984     0.58935192     2.27359728     0.31307743     0.88926110    -0.78501594
O       6.99357252     4.85467162     7.61698179    -0.31307743    -0.88926110     0.78501594
O       2.73437289     0.58940263     7.21891855    -1.38415184    -0.44987097    -0.36593856
O       4.66957947     4.85462091     2.67166062     1.38415184     0.44987097     0.36593856
