# total energy = -19514.95037912 eV

CRYSTAL
PRIMVEC
        5.93400000     0.00000000     0.00000000
        0.00000000     9.29699974     0.00000000
        0.00000000     0.00000000     4.64899994
PRIMCOORD
23 1
Ti      4.53306499     6.79453101     2.47343199    -0.12167390     1.13638662    -0.78651643
Ti      4.46912598     2.38191502     2.37356000    -0.02945354     0.00145936    -0.02578303
Ti      1.56065198     7.14866701     2.40361001    -0.15638201     0.10612078    -0.88362215
Ti      1.44204198     2.28646001     2.24174501     0.22497650     1.55283581     1.01516189
Ti      2.89567903     4.52114400     4.55839400    -0.02191352    -1.69032124    -0.02639058
Ti      2.98261301     0.01086099     4.55542500     1.69062128     0.64810593    -0.58756594
Ti      5.89037098     4.81583397     0.01620499     0.40797817    -1.68120127     0.08463175
Ti      0.03994399     0.03840102     0.16188500    -2.87824256     0.03781117    -1.46133048
O       4.39646598     5.46951700     0.92444699     0.37911419     0.52531797    -0.16320161
O       4.35038898     0.97175898     0.91554501     0.37401055    -1.37442973    -0.21697805
O       1.60965797     5.49508801     0.68461402    -1.74273962     1.76212857     0.95672610
O       1.49282098     0.84530102     0.78550103     0.40635066     0.40461980     1.89047809
O       4.41126199     8.40745898     3.74499698     0.07117510    -1.05152476     0.27757049
O       4.35358198     3.55004099     3.83950602     0.74952647     1.77132850    -0.96947569
O       1.14286199     8.63336797     3.40444602     1.78527648    -0.72497037     2.11514811
O       1.48749201     3.72442098     3.49878901     0.61922754     0.98575540     1.31754328
O       2.80355001     1.32902099     3.17036298     1.29400765    -0.30728577     0.38145878
O       0.14030600     5.97517999     3.05430202     0.18092603    -1.84743987     2.49952509
O       5.83241998     1.69313701     3.54123400     0.61438718    -1.58846129    -2.11917472
O       3.14359597     7.71951300     1.56655897    -1.24663814     0.40449587    -0.60188699
O       2.99806800     3.23226301     1.40492898    -0.70958977    -0.39847486     0.16552100
O       0.05409800     7.63253599     1.51970901    -0.92132482     2.24537196    -3.30770822
O       0.10967601     3.31310399     1.31764601    -0.96962044    -0.91762860     0.44586931
