# total energy = -19517.19633061 eV

CRYSTAL
PRIMVEC
        7.60600008     0.00000000     0.00000000
        0.00000000     7.60600008     0.00000000
       -1.89786986    -1.89786986     4.85670466
PRIMCOORD
23 1
Ti      3.80445401     6.78208799     1.23472901    -0.54690264     0.46998703     1.00204541
Ti      3.70657601     2.99043001     1.15627499     0.95819471    -0.34075768     1.03092430
Ti     -0.13570999     6.55305102     1.19050699     0.58324854    -1.26338348     0.38939937
Ti      0.02593402     2.68700502     1.23883500    -0.70260099     1.34372997    -1.48150799
Ti      5.72321622     2.73514824     3.52942583    -1.13725823    -1.36969941     0.89969104
Ti      5.77484920    -1.18670179     3.67451782    -1.35364081     2.06337867     0.15354608
Ti      2.00484823     2.96312023     3.63859880     1.35881361    -0.31166333     0.70593932
Ti      1.84672621    -0.94287675     3.65717181     1.23492239     1.17835707    -0.73530004
O       4.30816402     4.68387902     0.68687498    -1.52714071     1.64028215     0.95727014
O       3.75973298     1.06321102     0.81409200    -0.59673475    -0.01928945     0.24821851
O       7.30200702     4.75203599     0.75643099     0.89028182     1.27018097     0.62295539
O       0.15204199     0.89269302     0.82219799     0.07104141    -1.20276816    -0.94368006
O       5.70879423     4.58094823     3.97131783     0.33185652     1.76788502     0.42030739
O       5.57470024     0.92491124     4.20486381     1.10706010    -0.22948775    -1.77386464
O       2.01290623     4.88658021     4.17360779    -0.54853889    -2.23080614    -0.51931984
O       1.81149321     0.98187722     4.07667184    -0.78253585     0.75066573    -0.99876622
O       3.87972625     2.98602620     3.22804182    -1.44756376    -0.54992986    -1.58475813
O       3.72151225    -0.91122978     3.22776982     0.83201932    -0.59172187     0.08612325
O      -0.03229479     6.32763120     3.26565981    -0.30215204     0.71691484    -0.92806137
O       5.62377100    -0.52787098     1.67621598     1.74919618    -1.41424122     0.66926766
O       5.83879398     2.75372300     1.54462601    -1.09990240    -0.53660974     1.73447635
O       1.88658400     6.72839798     1.60923902    -0.61513512    -0.72730956     0.09884404
O       1.76052403     3.23504701     1.71610902     1.54347185    -0.41371353    -0.05374970
