# total energy = -19943.10978864 eV

CRYSTAL
PRIMVEC
        5.96246699     0.00000000     0.00000000
        0.00002347     4.23057856     0.00000000
        0.00000000     0.00000000     9.26345909
PRIMCOORD
24 1
Ti      2.16112151     2.50703692     3.43667725    -0.22515210     1.95460426    -3.04067026
Ti      3.80136905     1.72354164     5.82678194     0.22515210    -1.95460426     3.04067026
Ti      5.14225221     1.72354311     1.19501531    -0.22380973    -1.95483617     3.04193550
Ti      0.82023834     2.50703565     8.06844393     0.22380973     1.95483617    -3.04193550
Ti      2.16110977     0.39174774     1.19505245    -0.22515210     1.95460426     3.04067026
Ti      3.80138078     3.83883097     8.06840680     0.22515210    -1.95460426    -3.04067026
Ti      0.82022661     0.39174617     5.82674476     0.22380973     1.95483617     3.04193550
Ti      5.14226395     3.83883255     3.43671439    -0.22380973    -1.95483617    -3.04193550
O       1.88716676     1.48965865     4.72707228     1.59530840    -1.80033261     2.51467275
O       4.07532380     2.74091996     4.53638691    -1.59530840     1.80033261    -2.51467275
O       1.09411824     1.48967570     0.09537251    -1.59418405    -1.80114534     2.51513015
O       4.86837241     2.74090291     9.16808638     1.59418405     1.80114534    -2.51513015
O       4.07531211     0.62563063     0.09534243    -1.59530840     1.80033261     2.51467275
O       1.88717844     3.60494793     9.16811646     1.59530840    -1.80033261    -2.51467275
O       4.86836068     0.62561363     4.72710231     1.59418405     1.80114534     2.51513015
O       1.09412982     3.60496503     4.53635684    -1.59418405    -1.80114534    -2.51513015
O       0.21664461     2.57327770     2.50229142     1.28734283    -0.39659949     1.45128183
O       5.74584595     1.65730091     6.76116777    -1.28734283     0.39659949    -1.45128183
O       3.19788477     1.65726146     2.12946764     1.28600149     0.39681341    -1.45139084
O       2.76460579     2.57331715     7.13399140    -1.28600149    -0.39681341     1.45139084
O       0.21663287     0.45798837     2.12943802     1.28734283    -0.39659949    -1.45128183
O       5.74585768     3.77259019     7.13402097    -1.28734283     0.39659949     1.45128183
O       2.76459410     0.45802782     6.76119729    -1.28600149    -0.39681341    -1.45139084
O       3.19789645     3.77255080     2.50226185     1.28600149     0.39681341     1.45139084
