# total energy = -19513.75572264 eV

CRYSTAL
PRIMVEC
        5.17600016     0.00000000     0.00000000
        0.00000000     5.50899976     0.00000000
        0.00000000     0.00000000     9.26300011
PRIMCOORD
23 1
Ti      2.01343397     2.86633303     3.21344298     0.69653499    -1.46925462     2.69815240
Ti      3.20378602     2.63182199     6.07540299    -1.54544800     1.19505948    -2.61572177
Ti      4.42654902     1.78744602     1.34702900     1.72877313     1.53953344    -1.35277820
Ti      1.04657798     3.30315398     7.70598199    -1.72685842    -0.21811833     3.30220014
Ti      2.08353800     0.02711203     1.24338402    -0.29441739     0.25122695    -1.32625624
Ti      3.23073199     0.11086999     7.56750498     0.08770653     0.58386818     1.59226832
Ti      0.55473101     0.71748402     6.03079599    -0.52146002    -1.03994039    -1.78029317
Ti      4.55282198     4.52907399     3.17303098    -0.04685374     3.90686881     3.96353414
O       1.72435000     1.95123199     4.87023498    -1.25441753     0.02468594     0.68811591
O       3.36463897     3.73182798     4.47305301     0.00066797    -0.49065408    -0.74975736
O       0.42997699     2.35996099     0.07091398    -0.59963239     0.74916009     0.38431116
O       3.53393701     0.71925200     0.19204297    -0.71133812    -0.62532903    -0.60089197
O       1.77245703     4.56563802     8.98157602     0.27253961     0.59185068     0.70544566
O       3.95914998     1.00292101     5.63397698    -0.61543876    -2.66393511    -1.19700606
O       0.57541501     4.94411098     4.64808399    -0.30504505     0.56576760    -0.28308242
O       0.09624898     3.09430200     2.68382000     2.36601537    -2.14419465    -0.89677489
O       4.74790301     2.52774298     6.93823898     2.75185762     0.64474447     0.94433697
O       2.84130897     1.24342800     2.53479401     0.72767132     2.28040711     0.48452457
O       2.29468099     4.31806800     6.74009999    -0.05593643     0.02188755    -1.92443466
O       0.47267700     0.67282601     2.00114399    -0.77185240    -2.90763053     1.18475423
O       4.88218899     5.01731001     7.47441000     2.05725919     0.08138881    -0.32934198
O       2.28549702     1.76946802     7.61435701    -1.32137011     0.19945263    -1.50494617
O       2.97571597     4.23322998     2.16896203    -0.91895735    -1.07684474    -1.38635862
