# total energy = -19073.82186938 eV

CRYSTAL
PRIMVEC
        7.60600008     0.00000000     0.00000000
        0.00000000     7.60600008     0.00000000
       -1.89786986    -1.89786986     4.85670466
PRIMCOORD
22 1
Ti      3.87598200     6.55079599     1.05387200    -0.59828204     2.57123293    -0.29081013
Ti      3.66603902     2.90401600     1.33299098     1.39576346    -2.60135110    -0.56808340
Ti      0.04542500     7.06075701     1.12384997    -0.67168270    -1.95915897    -0.17550742
Ti     -0.00776202     2.92152801     1.44826701    -1.92562663     1.07568697    -1.16929881
Ti      5.45033321     3.03047624     3.77561681     1.48115266    -0.72656677    -0.72308575
Ti      5.84736321    -0.70107275     3.57892883    -0.23454023    -2.11744334    -0.34198821
Ti      1.85954923     2.68844724     3.65987479    -1.79252879     0.07067811     0.31774785
Ti      1.83329823    -0.98274280     3.57984282     0.65284910    -1.48545000     2.03937510
O       3.58134299     4.62415698     0.78560501    -0.03337242     0.85788900     0.30900943
O       3.59224700     0.83119897     0.87780499     1.43824505    -0.20366590    -0.16220247
O       0.13769600     4.66663102     0.75046902    -0.44795936    -0.35840189     0.16976178
O       7.06509701     1.25923902     0.57958202     1.34038394    -0.41595477     0.07910747
O       5.55744721     4.77149723     3.95472183     0.55160005     3.47385194     1.57965012
O       0.09693723    -1.08813178     3.34752379    -3.10204149     0.99330082    -0.99519316
O       1.89619920     4.62715122     3.94945683     0.54328613     1.11749852     0.96686807
O       1.80312221     0.77732423     4.14796381     0.71036933     1.79619030     0.00067491
O       3.63915724     3.04674421     3.35549982     1.01336032    -1.10156488    -0.37502690
O       0.04474622     3.04011124     3.27204179    -1.15158802    -0.65599716     1.09267631
O       5.69534900     6.60545301     1.59549402     0.42709073     0.44514143     0.25919892
O       5.60361898     2.98394600     1.81399199    -0.94983297    -0.39487017    -0.20683093
O       1.93027901     6.74059398     1.74617401     0.28652410    -0.09699285    -1.62091428
O       1.80030900     2.56336402     1.68539901     1.06682977    -0.28405198    -0.18512875
