# total energy = -19958.23403089 eV

CRYSTAL
PRIMVEC
        5.27959331     0.00000000     0.00000000
        1.11271740     5.50780925     0.00000000
        0.00000000     0.00000000     9.49738452
PRIMCOORD
24 1
Ti      2.57299386     3.26392266     3.52346204     0.83696175    -1.48316763     0.81913192
Ti      3.81931660     2.24388672     5.97392286    -0.83696175     1.48316763    -0.81913192
Ti      5.00663048     2.24388870     1.22519246    -1.46751398    -0.46621162     0.61941266
Ti      1.38568000     3.26392090     8.27219254     1.46751398     0.46621162    -0.61941266
Ti      2.01663529     0.51001824     1.22523054     0.83714893    -1.48282799    -0.81695882
Ti      4.37567518     4.99779130     8.27215446    -0.83714893     1.48282799     0.81695882
Ti      0.82932134     0.51001611     5.97388477     1.46708615     0.46567195     0.61591468
Ti      5.56298913     4.99779343     3.52350012    -1.46708615    -0.46567195    -0.61591468
O       2.06283123     1.93939329     4.84644277     0.55562074     0.92912298    -0.58775877
O       4.32947922     3.56841609     4.65094213    -0.55562074    -0.92912298     0.58775877
O       1.36061406     1.93941547     0.09778091     0.07787257    -0.34792284     0.48488093
O       5.03169645     3.56839396     9.39960372    -0.07787257     0.34792284    -0.48488093
O       3.77312063     0.81451151     0.09775008    -0.55431642    -0.92769216    -0.58756722
O       2.61918982     4.69329787     9.39963455     0.55431642     0.92769216     0.58756722
O       4.47533786     0.81448938     4.84647360    -0.07823638     0.34748344     0.48467729
O       1.91697254     4.69332007     4.65091130     0.07823638    -0.34748344    -0.48467729
O       0.86863758     3.35016174     2.56548059    -0.05811672     0.27765019     0.14052472
O       5.52367288     2.15764764     6.93190430     0.05811672    -0.27765019    -0.14052472
O       3.26751607     2.15759620     2.18324207     0.82762427     0.11070506    -0.38811588
O       3.12479439     3.35021319     7.31414267    -0.82762427    -0.11070506     0.38811588
O       0.31227899     0.59625716     2.18321172    -0.05778351     0.27827446    -0.14146241
O       6.08003147     4.91155228     7.31417301     0.05778351    -0.27827446     0.14146241
O       2.56843580     0.59630855     6.93193460    -0.82801482    -0.11071457    -0.38756643
O       3.82387466     4.91150083     2.56545024     0.82801482     0.11071457     0.38756643
