# total energy = -19515.53664593 eV

CRYSTAL
PRIMVEC
        5.17600016     0.00000000     0.00000000
        0.00000000     5.50899976     0.00000000
        0.00000000     0.00000000     9.26300011
PRIMCOORD
23 1
Ti      1.92151202     3.15488798     3.32449501    -0.18356963    -0.17040095     3.87430295
Ti      3.31539300     2.39986503     5.96615900    -0.16355642    -0.84171212    -3.40165559
Ti      4.30250601     2.19171300     1.53229999     1.47763385    -1.35849120    -2.59931710
Ti      0.93575800     3.39196003     7.77147402    -1.31619808     0.05501417     2.22348878
Ti      1.97629499     0.14378100     1.45206899     0.15990211     1.12205323    -2.76094467
Ti      3.30394499     5.17789599     7.90632701    -1.17692239     2.26080373     1.49587274
Ti      0.61894201     0.56020302     5.90138702     0.39016402     0.99618894    -3.07657830
Ti      4.54110801     4.87349202     3.30131202    -0.05189079    -0.10512833     3.51330167
O       1.57608999     2.06704402     4.89377998     1.06391466    -0.04079802    -0.51436558
O       3.46933701     3.67111198     4.46759798     0.04864015    -0.10184992     0.22505183
O       0.16434901     2.56658100     9.23746799    -0.22192999     0.12183563     1.39533075
O       3.40520300     0.80703399     0.20801201    -0.24370673     0.12900361     0.24444052
O       1.56715001     4.72772898     9.03652701     1.00705777     0.33139012     0.48986398
O       4.40215098     0.93279503     4.83228699    -1.38647226    -0.39214377    -0.61523410
O       0.95780299     4.71890802     4.22419402     0.75549118     0.62778161     1.65218970
O       0.14805602     3.12734298     2.72447098    -0.05477506    -0.17573034    -1.09190189
O       5.02306502     2.29324301     6.79478099    -1.10723005    -1.40933761    -0.63679256
O       2.81999102     1.68914902     2.56290501    -0.78679051    -1.43986973    -0.85654842
O       2.46930102     3.86853399     6.82353098     0.49484987    -1.05293064     0.21039139
O       0.24354600     0.44998699     2.10892999    -0.39450507     1.93106965    -1.79677189
O       4.98481800     4.78791802     7.07651300    -0.21969699     0.30071222     0.65722769
O       2.31998498     0.90907698     6.84658099     1.17157501     0.42123273     1.25457488
O       2.99382802     4.30369703     2.06077200     0.73801590    -1.20869301     0.11407269
