# total energy = -19073.00750671 eV

CRYSTAL
PRIMVEC
        5.93400000     0.00000000     0.00000000
        0.00000000     9.29699974     0.00000000
        0.00000000     0.00000000     4.64899994
PRIMCOORD
22 1
Ti      4.39473001     6.77391601     2.20334198    -1.73235904    -1.48895262     0.56507752
Ti      4.38382499     2.47535301     2.08308402     0.09511260    -1.01635386    -0.55750639
Ti      1.42923298     7.27671398     2.65859598     1.34884621    -0.17958468     0.88565204
Ti      1.53777300     2.33668100     2.18293199     0.30332652     0.51930287     0.73214941
Ti      3.07864301     4.54243301     4.49722101     0.84092177     0.11520398    -0.64937991
Ti      3.03046301     0.23018501     4.58533098     1.42861086     0.89194764     0.60934191
Ti      5.88244099     4.47158602     4.39649799    -0.40483757    -0.88220573    -0.95903006
Ti      5.92147702     9.18538197     0.41760801    -1.70628214     0.61432368     0.51018290
O       4.65073898     5.24406500     0.94108702    -1.05123551     1.44444963     0.57775255
O       4.18604298     0.62089901     1.37105502     2.17895263     0.93735874    -0.91674980
O       1.50203502     0.63279100     1.37278300    -0.51201199     0.46465148     0.11564955
O       4.50010000     8.52304902     3.98677901    -0.22288002     0.58227589    -1.15617436
O       4.36034799     3.98005502     3.14266102     0.80644249     0.79589762     1.84526085
O       1.54434401     8.48885702     4.11647200    -1.10750747    -0.69671137    -2.34185419
O       1.59606701     3.91430200     3.50772898    -1.15066499    -0.51863309    -0.62594995
O       2.89966198     6.18056702     3.54717602    -0.45030240     0.66359297    -0.88782745
O       3.11005201     1.82773700     3.32914002    -0.49863453    -2.22315608     0.70976692
O       5.87284002     6.27733100     3.36760401     1.09321701    -1.22478813     0.66581466
O       2.93562101     7.72191599     1.47310500    -0.60203303    -1.03449351     0.84154834
O       2.89397899     2.88493900     0.91027801     0.21351091     1.37923126     0.84528313
O       5.79556099     7.72677198     1.50600998     1.71032160     0.49365636    -0.34908806
O       0.16301702     3.07009601     1.11790599    -0.58051366     0.36298668    -0.45991936
