# total energy = -19916.52680504 eV

CRYSTAL
PRIMVEC
        6.41038376     0.00000000     0.00000000
        2.31698014     6.41711004     0.00000000
        0.00000000     0.00000000    11.65846041
PRIMCOORD
24 1
Ti      3.69649617     3.80277337     4.32520568    -0.17872825    -2.15254148     0.64922616
Ti      5.03086796     2.61433650     7.33325486     0.17872825     2.15254148    -0.64922616
Ti      6.47248279     2.61433868     1.50397804    -0.17431032    -0.92172051     0.05462028
Ti      2.25488138     3.80277138    10.15448262     0.17431032     0.92172051    -0.05462028
Ti      2.53800626     0.59421852     1.50402478    -0.17872825    -2.15254148    -0.64922616
Ti      6.18935789     5.82289148    10.15443588     0.17872825     2.15254148     0.64922616
Ti      1.09639134     0.59421615     7.33320812     0.17431032     0.92172051     0.05462028
Ti      7.63097282     5.82289391     4.32525242    -0.17431032    -0.92172051    -0.05462028
O       2.84477508     2.25957346     5.94922311     1.83913237     2.10444563    -0.75975844
O       5.88258904     4.15753641     5.70923743    -1.83913237    -2.10444563     0.75975844
O       1.99215992     2.25959935     0.12003042    -0.41878015    -0.46009445     1.37194450
O       6.73520429     4.15751058    11.53842980     0.41878015     0.46009445    -1.37194450
O       4.72409911     0.94898143     0.11999258    -1.83913237    -2.10444563    -0.75975844
O       4.00326502     5.46812844    11.53846763     1.83913237     2.10444563     0.75975844
O       5.57671435     0.94895553     5.94926094     0.41878015     0.46009445     1.37194450
O       3.15064972     5.46815435     5.70919959    -0.41878015    -0.46009445    -1.37194450
O       1.64222269     3.90324999     3.14924101     0.58452381     2.33894267     2.27435139
O       7.08514144     2.51385988     8.50921952    -0.58452381    -2.33894267    -2.27435139
O       4.34574867     2.51380010     2.68002631     0.69855330     1.95449241     1.26945052
O       4.38161546     3.90330977     8.97843403    -0.69855330    -1.95449241    -1.26945052
O       0.48373276     0.69469501     2.67998906     0.58452381     2.33894267    -2.27435139
O       8.24363137     5.72241486     8.97847128    -0.58452381    -2.33894267     2.27435139
O       3.22312553     0.69475479     8.50925665    -0.69855330    -1.95449241     1.26945052
O       5.50423860     5.72235508     3.14920383     0.69855330     1.95449241    -1.26945052
