# total energy = -19889.18397613 eV

CRYSTAL
PRIMVEC
        8.81171864     0.00000000     0.00000000
        0.00002740     3.12611111     0.00000000
        0.00000000     0.00000000    14.01870114
PRIMCOORD
24 1
Ti      3.19384022     1.85253044     5.20083826     0.05971004     0.18020483     2.00742990
Ti      5.61790546     1.27358037     8.81786330    -0.05971004    -0.18020483    -2.00742990
Ti      7.59954923     1.27358137     1.80845652     0.06511167    -0.17994618    -2.00763996
Ti      1.21219651     1.85252956    12.21024516    -0.06511167     0.17994618     2.00763996
Ti      3.19382688     0.28947495     1.80851273     0.06034150     0.18087666    -2.00708229
Ti      5.61791886     2.83663598    12.21018895    -0.06034150    -0.18087666     2.00708229
Ti      1.21218311     0.28947388     8.81780709    -0.06454834     0.18117028    -2.00739648
Ti      7.59956263     2.83663705     5.20089447     0.06454834    -0.18117028     2.00739648
O       2.78897409     1.10075677     7.15363605     2.07844586     0.34435414    -1.45236786
O       6.02277164     2.02535410     6.86506551    -2.07844586    -0.34435414     1.45236786
O       1.61695577     1.10076946     0.14433041    -2.08099331     0.34401682    -1.45565116
O       7.19479003     2.02534141    13.87437073     2.08099331    -0.34401682     1.45565116
O       6.02275824     0.46229849     0.14428488    -2.07939819    -0.34412763    -1.45284018
O       2.78898749     2.66381233    13.87441626     2.07939819     0.34412763     1.45284018
O       7.19477663     0.46228586     7.15368152     2.08107301    -0.34385124    -1.45618338
O       1.61696898     2.66382502     6.86502004    -2.08107301     0.34385124     1.45618338
O       0.32016657     1.90147798     3.78680098    -1.17990539     0.46298489     1.57794727
O       8.49157917     1.22463283    10.23190052     1.17990539    -0.46298489    -1.57794727
O       4.72603754     1.22460385     3.22259434    -1.17593818    -0.46296046    -1.57844144
O       4.08570820     1.90150702    10.79610699     1.17593818     0.46296046     1.57844144
O       0.32015317     0.33842243     3.22254959    -1.17978018     0.46313376    -1.57797684
O       8.49159257     2.78768844    10.79615173     1.17978018    -0.46313376     1.57797684
O       4.08569486     0.33845140    10.23194521     1.17603819     0.46317027    -1.57815090
O       4.72605088     2.78765941     3.78675623    -1.17603819    -0.46317027     1.57815090
