# total energy = -19075.11658923 eV

CRYSTAL
PRIMVEC
        7.60600008     0.00000000     0.00000000
        0.00000000     7.60600008     0.00000000
       -1.89786986    -1.89786986     4.85670466
PRIMCOORD
22 1
Ti      3.71564801     6.84289199     1.21008099     0.26923060     0.18557021    -1.86856380
Ti      3.94870799     3.06531701     1.09023103    -0.51935609    -0.17690302     1.81461844
Ti     -0.12983200     6.51241201     1.09448402    -0.45219962    -0.91360482     1.05586093
Ti      0.04335999     2.62071599     1.28766801     0.00669207     1.30077942    -1.47756031
Ti      5.73681824     2.63277022     3.60802781    -1.74430131    -0.30863560     1.17426439
Ti     -1.45763577    -1.15869577     3.77546081    -1.52557543     1.15705856    -0.41939208
Ti      1.88881622     2.90158623     3.61957879     1.81873657     1.09670986    -1.14637279
Ti      1.52729222    -0.74815376     3.72345481     0.00996123    -0.86653896    -1.35187240
O       4.01284502     5.00892901     0.62984999    -0.73551730    -0.69949510     0.93309508
O       3.94369002     1.22049198     0.65474800    -0.24820205    -1.47111224     1.96494704
O      -0.25548302     4.63888901     0.72354898     0.66667521     0.19665475     0.88867720
O       7.28089999     0.83303601     0.77179100     1.02777779    -0.62611836     0.57714500
O       5.65746822     4.58072825     4.06546783     1.09310260     1.41418517    -1.01214830
O       5.49604323     0.76971022     4.16436682     1.05927407    -0.19384120    -0.91334977
O       1.88538525     4.99915822     4.05354880    -0.58821386     0.11557550     0.02288257
O       2.26994921     1.12459622     3.94930279    -0.96746097    -0.93014217    -0.07606380
O       3.76382023     2.94104523     3.05678683     0.47871902     0.30893307     0.18889979
O       0.01515320     2.50597221     3.35113580     0.49122564     0.46853565    -0.76973278
O       5.55019102     6.60892500     1.96111501     0.46838472     0.29428703     0.30693224
O       5.74896900     2.88327897     1.72411901     0.39863838    -0.07025491    -0.46692665
O       1.80022899     6.73512599     1.74308398     0.46469930    -0.02897763     0.09464491
O       1.95605899     3.00294601     1.44446201    -1.47229032    -0.25266523     0.48001485
