# total energy = -19911.46715873 eV

CRYSTAL
PRIMVEC
        7.14512607     0.00000000     0.00000000
        0.00003322     6.22192511     0.00000000
        0.00000000     0.00000000    11.74307150
PRIMCOORD
24 1
Ti      2.58978421     3.68710693     4.35659592     0.37729590    -0.89833067     0.98498253
Ti      4.55537514     2.53481791     7.38647604    -0.37729590     0.89833067    -0.98498253
Ti      6.16222345     2.53481992     1.51489314     0.37677037     0.89819157    -0.98525095
Ti      0.98293591     3.68710512    10.22817895    -0.37677037    -0.89819157     0.98525095
Ti      2.58976787     0.57614451     1.51494023     0.37729590    -0.89833067    -0.98498253
Ti      4.55539149     5.64578054    10.22813187    -0.37729590     0.89833067     0.98498253
Ti      0.98291956     0.57614223     7.38642896    -0.37677037    -0.89819157    -0.98525095
Ti      6.16223980     5.64578275     4.35664301     0.37677037     0.89819157     0.98525095
O       2.26148923     2.19084551     5.99239968     0.94709037     1.43505842    -0.88367614
O       4.88367013     4.03107934     5.75067228    -0.94709037    -1.43505842     0.88367614
O       1.31113896     2.19087065     0.12090152    -0.94693610     1.43511421    -0.88418959
O       5.83402047     4.03105426    11.62217011     0.94693610    -1.43511421     0.88418959
O       4.88365378     0.92011671     0.12086340    -0.94709037    -1.43505842    -0.88367614
O       2.26150558     5.30180813    11.62220823     0.94709037     1.43505842     0.88367614
O       5.83400406     0.92009164     5.99243780     0.94693610    -1.43511421    -0.88418959
O       1.31115517     5.30183327     5.75063416    -0.94693610     1.43511421     0.88418959
O       0.25961904     3.78452758     3.17209669    -0.82721444     0.08076661     0.00279788
O       6.88554032     2.43739726     8.57097527     0.82721444    -0.08076661    -0.00279788
O       3.83218922     2.43733944     2.69947665    -0.82722318    -0.08058972    -0.00288735
O       3.31297014     3.78458541     9.04359512     0.82722318     0.08058972     0.00288735
O       0.25960263     0.67356496     2.69943912    -0.82721444     0.08076661    -0.00279788
O       6.88555673     5.54835989     9.04363264     0.82721444    -0.08076661     0.00279788
O       3.31295372     0.67362279     8.57101273     0.82722318     0.08058972    -0.00288735
O       3.83220563     5.54830206     3.17205917    -0.82722318    -0.08058972     0.00288735
