# total energy = -4984.00061929 eV

CRYSTAL
PRIMVEC
        3.10399235     0.00000000     0.00000000
        2.28870177     4.29131511     0.00000000
       -0.00001472    -0.00006630     5.03283061
PRIMCOORD
6 1
Ti      2.69633945     2.14562430     2.51641541     0.00000000     0.00000000     0.00000000
Ti      0.00000000     0.00000000     0.00000000     0.00000000     0.00000000     0.00000000
O       1.99802745     0.83630115     0.98082462    -3.29882042     1.76525195     1.88404776
O       3.39465148     3.45494755     4.05200626     3.29882042    -1.76525195    -1.88404776
O       0.69830576     1.30929650     3.49724101     3.29794856    -1.76526815     1.88376828
O       1.59038095     2.98195228     1.53558982    -3.29794856     1.76526815    -1.88376828
