# total energy = -19891.13140908 eV

CRYSTAL
PRIMVEC
        7.99653762     0.00000000     0.00000000
        0.00002486     2.83691141     0.00000000
        0.00000000     0.00000000    12.72181689
PRIMCOORD
24 1
Ti      2.89837482     1.68115098     4.71970344    -0.27513257     0.42065989     1.29814790
Ti      5.09818733     1.15576016     8.00211383     0.27513257    -0.42065989    -1.29814790
Ti      6.89650723     1.15576107     1.64115437    -0.27347626    -0.42106432    -1.29588558
Ti      1.10005498     1.68115017    11.08066301     0.27347626     0.42106432     1.29588558
Ti      2.89836272     0.26269533     1.64120539    -0.27407199     0.42168421    -1.29569378
Ti      5.09819949     2.57421591    11.08061200     0.27407199    -0.42168421     1.29569378
Ti      1.10004282     0.26269436     8.00206282     0.27478521     0.42177986    -1.29767456
Ti      6.89651939     2.57421688     4.71975446    -0.27478521    -0.42177986     1.29767456
O       2.53096327     0.99892465     6.49184593     4.98182533    -0.17489293     0.40694845
O       5.46559893     1.83798654     6.22997134    -4.98182533     0.17489293    -0.40694845
O       1.46736955     0.99893616     0.13097826    -4.97530244    -0.17428975     0.40682915
O       6.52919271     1.83797503    12.59083864     4.97530244     0.17428975    -0.40682915
O       5.46558678     0.41953078     0.13093694    -4.97857108     0.17422264     0.40570197
O       2.53097543     2.41738035    12.59087995     4.97857108    -0.17422264    -0.40570197
O       6.52918055     0.41951932     6.49188719     4.97842504     0.17387117     0.41084624
O       1.46738155     2.41739186     6.22993008    -4.97842504    -0.17387117    -0.41084624
O       0.29054763     1.72557033     3.43648019    -0.11103622     0.14920734     3.28765592
O       7.70601458     1.11134080     9.28533704     0.11103622    -0.14920734    -3.28765592
O       4.28882702     1.11131451     2.92446887    -0.11420125    -0.14962669    -3.29000179
O       3.70773519     1.72559668     9.79734819     0.11420125     0.14962669     3.29000179
O       0.29053547     0.30711463     2.92442826    -0.11094854     0.14946651    -3.28955828
O       7.70602673     2.52979656     9.79738880     0.11094854    -0.14946651     3.28955828
O       3.70772309     0.30714092     9.28537759     0.11438688     0.14875509    -3.28750808
O       4.28883912     2.52977021     3.43643958    -0.11438688    -0.14875509     3.28750808
