# total energy = -19944.52158281 eV

CRYSTAL
PRIMVEC
        4.85091212     0.00000000     0.00000000
        1.27087716     5.00397453     0.00000000
        0.00000000     0.00000000     8.75176284
PRIMCOORD
24 1
Ti      2.51134301     2.96535082     3.24684176     2.58709458    -1.43260739     0.69934263
Ti      3.61044641     2.03862404     5.50492158    -2.58709458     1.43260739    -0.69934263
Ti      4.70135544     2.03862577     1.12900497    -4.51101117     0.00684916     2.07983580
Ti      1.42043401     2.96534928     7.62275847     4.51101117    -0.00684916    -2.07983580
Ti      1.87590454     0.46336359     1.12904006     2.58744168    -1.43224383    -0.70453781
Ti      4.24588491     4.54061146     7.62272338    -2.58744168     1.43224383     0.70453781
Ti      0.78499544     0.46336167     5.50488649     4.51072295    -0.00668487     2.08922161
Ti      5.33679401     4.54061333     3.24687685    -4.51072295     0.00668487    -2.08922161
O       1.98284177     1.76198461     4.46595780    -1.47650719    -0.60358263    -0.84258399
O       4.13894760     3.24199026     4.28580554     1.47650719     0.60358263     0.84258399
O       1.33764272     1.76200480     0.09010433     1.52040056    -1.10163789    -0.41460108
O       4.78414676     3.24197015     8.66165876    -1.52040056     1.10163789     0.41460108
O       3.50350911     0.74000288     0.09007593     1.47625368     0.60337206    -0.84260275
O       2.61828032     4.26397198     8.66168716    -1.47625368    -0.60337206     0.84260275
O       4.14870826     0.73998273     4.46598619    -1.52025787     1.10149571    -0.41440439
O       1.97308112     4.26399219     4.28577714     1.52025787    -1.10149571     0.41440439
O       0.94926439     3.04370108     2.36406962    -0.65957511    -1.60089669    -2.06385561
O       5.17252499     1.96027378     6.38769372     0.65957511     1.60089669     2.06385561
O       3.09955640     1.96022712     2.01183990     1.20022611    -2.20238670    -2.22837079
O       3.02223303     3.04374779     6.73992328    -1.20022611     2.20238670     2.22837079
O       0.31382589     0.54171371     2.01181195    -0.65988313    -1.60114197     2.06371343
O       5.80796354     4.46226120     6.73995124     0.65988313     1.60114197    -2.06371343
O       2.38679453     0.54176037     6.38772162    -1.20048631     2.20284282    -2.22817488
O       3.73499490     4.46221449     2.36404167     1.20048631    -2.20284282     2.22817488
