# total energy = -19075.12133177 eV

CRYSTAL
PRIMVEC
        7.60600008     0.00000000     0.00000000
        0.00000000     7.60600008     0.00000000
       -1.89786986    -1.89786986     4.85670466
PRIMCOORD
22 1
Ti      3.74724598     6.46189998     1.11062700    -0.13461427    -0.47290524     0.72703368
Ti      3.77003098     2.76068400     1.18873298    -0.11880481     1.13080141     0.58365503
Ti      0.04096001     6.72992497     1.15885299    -0.78052447    -0.90920952     0.13782789
Ti     -0.05064798     2.96289898     1.19586401    -0.49574333     0.86483869     0.16833096
Ti      5.74616923     2.89394724     3.56436581    -0.76186289     0.28443122     0.66769800
Ti      6.01906223    -0.84434379     3.72453083    -1.10514925    -0.45616838    -1.12043318
Ti      1.94703922     2.68726622     3.52478484    -0.09640046     1.38857414     1.46518945
Ti      1.94545422    -1.01734977     3.77741083    -1.12047072    -1.04826152     0.32354748
O       3.34288900     4.63613199     0.68021999     1.11000195     0.31243363     0.11516258
O       3.69916398     0.89641700     1.16010200     0.33038559    -0.71206214    -1.78395159
O       0.13015400     4.77328400     0.66829202    -0.64415594     0.32123838     0.63965702
O      -0.24938102     1.15389100     0.68720799     0.32589182    -1.66814778     1.42645062
O      -1.55124580     4.83744621     4.21289582    -0.41014330     1.23866077    -1.22639378
O       5.60878825     1.02171421     3.92098979     0.65805456     0.03162844    -0.41135429
O       1.75604322     4.63590625     4.08677579     0.66430645     1.68648309     0.21217857
O       1.89321120     0.82766423     3.88421981     0.26732644     0.32377297     1.16436924
O       3.80007724     3.09343320     3.22216779    -0.54285752    -0.68687329     0.39464571
O      -0.08607576     3.06821923     3.11609082     0.82854036    -1.08035661    -0.30790669
O       5.57600302     6.39617002     1.88432102     0.60099687     0.55766605    -0.29182263
O       5.56010098     3.16175998     1.59763898     1.11558099    -0.49898652    -0.66089383
O       1.70782797     6.56115601     1.94397703     1.03403328     0.22004203    -0.73119450
O       1.86957201     2.89111101     1.71854598    -0.72439136    -0.82760036    -1.49179600
