# total energy = -19074.08906066 eV

CRYSTAL
PRIMVEC
        5.17600016     0.00000000     0.00000000
        0.00000000     5.50899976     0.00000000
        0.00000000     0.00000000     9.26300011
PRIMCOORD
22 1
Ti      1.77719798     3.32840002     3.45903700    -0.72387328     0.85454965    -0.65100742
Ti      3.64197400     2.21274202     5.85930902    -1.22795907    -0.02323430     0.23946030
Ti      4.30276700     2.30480902     1.28734098     0.50304346    -1.06974695    -0.90900126
Ti      0.96431002     3.16500903     8.07936300     0.14179176    -0.40348183     0.27380562
Ti      1.73090201     0.51414899     1.29179401     0.54740324     0.81780317    -0.89077008
Ti      3.26434200     5.06782802     8.04908702    -0.51135173     0.87828171     1.99599158
Ti      1.41664697     0.28103000     5.81732600    -0.35146505    -0.02569767     0.42523028
Ti      4.21023300     5.00187698     3.36150900     0.72019429     0.11173170     0.87430498
O       3.41370402     3.48419297     4.39745501     0.32871206    -0.76497598     1.21374138
O       0.92694402     1.93476199     0.18536301    -0.22386346     0.02009318    -0.49195995
O       4.37841198     3.57440902     8.53967000     0.12035827     0.08251830     0.31609411
O       3.43177601     0.73729203     0.39433701     0.31917532     0.39058645    -1.04708858
O       1.74393501     4.66217799     9.13969800    -0.99776837    -1.11993850    -0.67678197
O       3.00114199     0.67310198     4.89169402     1.13939739     0.00825402    -1.69453630
O       0.62251999     4.62497202     4.54852702     0.17684054    -0.09188252     0.36239018
O       0.06810601     3.54674702     2.27883102    -0.22423833     0.32145743     0.67870104
O       0.10365699     1.65041700     6.47806999     0.59923130     0.18177012    -0.15508849
O       2.72384401     2.15073002     2.34843000    -0.66384417    -1.02188559    -0.86235089
O       2.34812202     4.00754800     6.75540899    -0.78121096    -0.69330182    -0.34407621
O       5.12099001     0.77661900     2.15765398     0.74761948    -0.23751500     1.20922677
O       2.54821997     1.10862602     7.20182598     0.64605856     1.39631831     0.10701655
O       2.53788101     4.75926202     2.47804901    -0.28425124     0.38829611     0.02669886
