# total energy = -19960.78869622 eV

CRYSTAL
PRIMVEC
        7.60600008     0.00000000     0.00000000
        0.00000000     7.60600008     0.00000000
       -1.89786986    -1.89786986     4.85670466
PRIMCOORD
24 1
Ti      3.84265299     6.64063197     1.11334300    -0.54646710    -0.49430685     0.05780279
Ti      3.74721899     2.76592000     1.19700000     0.74511240     1.29501706     1.04316816
Ti      0.00318798     6.73914398     1.24220899     0.52274918    -1.26799502    -0.81798238
Ti     -0.08966300     2.73554200     1.20938200    -0.41944298     1.71142280     2.38576685
Ti      5.66313221     2.79200521     3.77508181     0.80199936     1.33054201    -0.68012312
Ti      5.71178921    -0.88498778     3.55871881     0.14961769    -1.20590542     0.93103022
Ti      1.90562221     2.77716523     3.62557083    -0.67779678     0.68359462    -0.22592266
Ti      1.98080025    -0.89085577     3.57371781    -0.34399419    -0.43075970     0.33797781
O       3.83433898     4.64107800     0.73726499    -0.21349703     1.06357244     0.58815626
O       3.85402098     0.94024002     0.71854899     0.00006453     0.22841869     0.32100183
O      -0.10077398     4.64531401     0.88473002     0.23980148     1.85478294    -0.36157823
O      -0.13762001     0.90311601     0.78903402     0.10254386     0.55058498    -0.31732078
O       5.83697324     4.75228820     4.14850881    -0.06173092     0.05517872    -0.32641889
O       5.73818823     0.94541024     4.17543981    -0.20897086    -1.13463519    -1.49581207
O       1.74841523     4.67861323     4.09755481     0.39769993     1.08475500    -0.29766701
O       2.07342225     0.93889924     3.92080781    -0.49976402    -0.71078739     1.15767177
O       3.85505722     2.81120821     3.22154384    -1.02493080    -0.00685482     0.02536034
O       3.80676625    -0.94768777     3.20094482     0.91174849    -0.62610550     0.15368826
O       0.00137925     2.69094522     3.15649779    -0.38538511    -0.28097283     1.21743605
O      -0.06816380    -0.73063080     3.19608083     1.12455389    -0.63220982     0.40341755
O       5.73203099     6.69718801     1.60359403    -1.15932113    -0.23054551    -0.14108985
O       5.65145602     2.92531999     1.74921498     0.05067158    -0.65962833    -0.90925169
O       1.98220400    -0.62326899     1.73284102    -0.87682364    -1.19100433    -1.66551805
O       1.84992799     3.05338200     1.73037997     1.37156243    -0.98615881    -1.38379343
