# total energy = -19074.05061803 eV

CRYSTAL
PRIMVEC
        5.93400000     0.00000000     0.00000000
        0.00000000     9.29699974     0.00000000
        0.00000000     0.00000000     4.64899994
PRIMCOORD
22 1
Ti      4.46896501     6.95979200     2.41482503    -0.15058365    -0.43193238     0.44503395
Ti      4.43642299     2.34122600     2.16830600     0.25610305    -0.44619584     0.72692081
Ti      1.53546801     7.27731698     2.49802301     0.04569958    -0.86663075     1.16601783
Ti      1.59183401     2.40134900     2.17183398    -0.54793288     0.26934938     0.99324734
Ti      2.99340499     4.59250001     4.61318999    -0.57237971     0.07502019    -1.25879663
Ti      2.97316100     0.09701502     0.05906502     0.04025012     0.26143064    -0.10548237
Ti      5.77709000     4.52433600     4.47098900     0.81831328    -0.21143680    -0.90955328
Ti      5.88480398     9.14685898     0.08113600    -0.11634015    -0.15288119     0.20076544
O       4.45490598     5.47213002     0.74555000     0.08015700     0.81587458     1.90372982
O       4.49682503     0.72007302     1.11441400     0.17807159     0.79506715    -0.52907615
O       1.37858098     0.85438599     0.96301602     0.23215245     0.71891388    -0.06472857
O       4.40126202     8.16327998     3.93268800     0.04411449     1.40008240    -0.17000166
O       4.30666798     3.88002999     3.43066199     0.93110479    -0.93318198     0.13011304
O       1.50673099     8.18353001     4.13658899     0.47713702     0.54446318    -1.55258667
O       1.60520601     3.83475200     3.54601601    -1.22711009    -0.43491897    -0.02139544
O       2.94931802     6.10234801     3.25999798    -0.34169948    -0.17747483    -0.45700424
O       2.98076999     1.51657802     3.31053399    -0.18374087    -1.07913071     0.24027791
O       0.06802298     6.11223399     3.37618298    -0.16114626    -0.27957646    -1.00146562
O       2.96890298     8.08666601     1.67170501     0.21407296    -0.60988107    -0.36708656
O       3.01662302     2.92093300     1.13370601    -0.04025501     1.90177989    -0.84195021
O       0.03000800     7.96010100     1.49707102    -0.24124516    -1.35395140     1.38293263
O       5.90490801     3.14229499     1.26721198     0.26525670     0.19521134     0.09008840
