# total energy = -4990.64120989 eV

CRYSTAL
PRIMVEC
        3.82216395     0.00000000     0.00000000
       -0.00000851     3.82216395     0.00000000
       -1.91111195    -1.91111621     4.87793126
PRIMCOORD
6 1
Ti     -0.00016832     2.86676773     1.21948268    -0.00028179     0.00028179    -0.00000000
Ti      1.91121170    -0.95572009     3.65844826     0.00028179    -0.00028179     0.00000000
O       0.00003818     0.95553449     0.79457509     0.00003111    -0.00008999    -0.07745760
O       1.91100510     0.95551304     4.08335591    -0.00003111     0.00008999     0.07745760
O      -0.00002159    -0.95551790     3.23354067    -0.00008999     0.00003111    -0.07745760
O       1.91106481     2.86656538     1.64439033     0.00008999    -0.00003111     0.07745760
