# total energy = -19517.47714378 eV

CRYSTAL
PRIMVEC
        5.17600016     0.00000000     0.00000000
        0.00000000     5.50899976     0.00000000
        0.00000000     0.00000000     9.26300011
PRIMCOORD
23 1
Ti      1.83376703     3.21370799     3.38388700    -0.43191875    -0.00724511     3.14398159
Ti      3.35937699     2.21644499     5.85773101    -0.34859132     0.84697646    -2.98926952
Ti      4.28831898     2.09039100     1.46249801     1.35386552    -0.14375892    -0.99542713
Ti      0.90814198     3.36446599     7.75716798     0.90351658    -0.22659552     1.62338794
Ti      1.89339599     0.24607499     1.40581202     0.23071366     0.25308972    -2.32679832
Ti      3.41024500     5.23883498     7.90045500    -1.62796090    -0.42908591     1.75867198
Ti      0.71877802     0.59399501     5.89876299     0.33365167    -0.77205989    -3.29986429
Ti      4.47871600     4.98205998     3.36228001     0.42458622    -0.80450516     3.76315489
O       1.74053399     1.90478198     4.75242399    -0.98488766    -0.48939321     0.80695491
O       3.45642498     3.57279503     4.53111502     0.54867568    -0.06701197    -0.22119646
O       0.31982499     2.65164201     0.08013299    -0.60809029    -0.20106600    -0.34732223
O       3.44931300     0.85097502     0.25553001    -0.01754187    -0.16763059    -0.86115404
O       1.74538501     4.79806701     8.94924901     0.24848384    -0.24242426     0.91990223
O       4.21913598     0.76025102     4.83880201     0.06793371    -0.06960159    -0.71317337
O       0.92215502     4.74648101     4.49519601     0.06709836    -0.19009381    -0.22179964
O       0.08845499     3.33956301     2.58296999     0.05255131    -0.20059857    -0.20986894
O       5.06088199     2.05913801     6.73555500    -0.10004218     0.68033780     1.06142943
O       2.55464001     1.83201000     2.33352599     0.20593078     0.21049449    -0.95223129
O       2.71173802     3.57720403     6.99251902    -0.82302405     0.06936350     1.67632594
O       0.08725799     0.55928098     2.03549802     0.75484069     0.59136475    -0.43728645
O       5.06038700     4.74755201     7.08858999    -0.10842166     0.48744869     0.37132451
O       2.38844300     0.79862499     6.93050601    -0.36298539     0.92852443    -0.55653863
O       2.81405100     4.56567802     2.41349102     0.22161580    -0.05652958    -0.99320338
