# total energy = -19961.28968727 eV

CRYSTAL
PRIMVEC
        7.60600008     0.00000000     0.00000000
        0.00000000     7.60600008     0.00000000
       -1.89786986    -1.89786986     4.85670466
PRIMCOORD
24 1
Ti      3.74866201     6.63247503     1.22882302    -0.36780056     0.23661383    -0.76673384
Ti      3.75092498     2.88169599     1.15573402    -0.90192610    -0.33098003     0.69249064
Ti     -0.01610599     6.70653201     1.21828499     0.42670892    -0.47880746     0.33303974
Ti     -0.06319302     2.88795198     1.19682299     1.03934493     0.28087436     0.40534613
Ti      5.67643520     2.93324722     3.64206480     1.23435109    -0.53720341     0.41838472
Ti      5.70239621    -0.93226077     3.61693381     1.47287062     0.12881926     0.17704726
Ti      1.92239723     2.78459223     3.67604179    -0.98632310     1.04995330    -1.44969443
Ti      1.95811521    -1.04239176     3.68401083    -1.11381310    -0.90753368    -0.35775834
O       3.71329899     4.79240301     0.71477702     0.37543417    -0.96479036     0.89938250
O       3.67702802     0.89767798     0.77793199     0.43729056     0.41763164     0.77335161
O       0.05674198     4.77591999     0.81631602    -0.60160160     0.56403931    -0.56478004
O       0.08559199     0.99919598     0.75678999    -0.59560218    -0.52108721    -0.39901762
O       5.97118725     4.78593721     4.03881381    -0.55266551    -0.11006305     0.11710197
O       5.98479525     1.02231520     4.07945282    -1.39881716    -0.93043476    -0.53693807
O       1.64328920     4.72686425     4.04146080     0.90735036     0.09956292     0.42182974
O       1.85052422     0.90314120     4.13000782     0.61722234     0.02967157    -0.62506858
O       3.84735520     2.94360423     3.35135181    -0.52595637    -0.32187884    -0.48097670
O       3.83638922     6.31319720     3.18810380     0.36949826     0.91402006     0.80909561
O       0.08371722     2.72443722     3.12568280    -1.25994952     0.30393510     0.19718697
O       0.04447724    -1.02220778     3.11986984    -1.16378714     0.64657329     0.46289541
O       5.68929601     6.69899102     1.55743501     0.06642550     0.23654492     0.33214294
O       5.63445499     2.90147802     1.57818701     0.30335300    -0.06508133     0.29083481
O       1.91302799     6.60347902     1.75766398     0.44491800     0.50491523    -0.99900867
O       1.88108198     2.93658898     1.65907302     1.77347434    -0.24529465    -0.15015377
