# total energy = -19960.26360757 eV

CRYSTAL
PRIMVEC
        7.60600008     0.00000000     0.00000000
        0.00000000     7.60600008     0.00000000
       -1.89786986    -1.89786986     4.85670466
PRIMCOORD
24 1
Ti      3.62241301     6.76639201     1.32844699     2.75925263    -1.27723042    -0.61211458
Ti      3.81584301     2.95820698     1.24629498     0.26379168     1.28449071    -0.84147198
Ti      0.13583297     6.53930998     1.19438898    -2.68767258    -0.17891002    -0.97008992
Ti      0.05144502     2.73593502     1.07060501    -0.34860289     0.26978930     1.97216567
Ti      5.75511624     2.70813824     3.54046081     0.36662402     0.88190594     0.36189447
Ti      5.65725120    -1.10464079     3.54128781     0.05297451    -0.70915191    -0.21522687
Ti      1.94951021     3.03247521     3.59042181    -0.34480357    -1.81963749     1.09743465
Ti      1.78514220    -0.89537579     3.72068880     0.30291335     1.42676687     0.71054853
O       3.58561900     4.85414302     0.97323899     0.87158655     0.00435905    -1.14751616
O       3.73930202     1.07126097     1.00946799    -0.33972076    -1.61197661    -1.72161106
O       0.19646002     4.59510102     0.80109498    -0.17456254     0.85095242    -0.51940237
O       0.16441802     0.77882302     0.80786998    -0.11252283     1.38508310    -0.63035040
O       5.68149324     4.65579125     3.97234179     0.48982619     0.39323109     0.78512135
O       5.57789721     0.84443222     4.06945179     0.07784738    -0.09641512    -0.61869352
O       1.76567721     4.77915125     4.10053381     0.08281346     1.88362301     0.49560372
O       1.98489724     1.01220723     4.02916982    -0.30459588    -0.25560606     0.74218700
O       3.92292023     3.01114524     3.22633183    -1.52424462    -0.32832048     0.72851052
O       3.71530024    -0.95820479     3.22822782     0.62514854    -0.05163626     0.62328603
O       0.01204222     2.88092821     3.16372381    -0.09666786    -0.53290529    -0.08922683
O      -0.05867676    -0.74821276     3.10357382     1.64514308    -0.51149725     1.75591679
O       5.81003499     6.45752098     1.67089802    -1.39105089     0.22511225    -0.52802585
O       5.64183500     2.78993502     1.59280998     2.52506747    -0.19032598    -0.29616625
O       1.90037801     6.70874000     1.73378502    -1.13879138    -0.17766458     0.12637774
O       1.99464898     2.99755999     1.76724500    -1.59975358    -0.86403625    -1.20915067
