# total energy = -4988.58982845 eV

CRYSTAL
PRIMVEC
        4.07055323     0.00000000     0.00000000
        0.80604168     3.98994993     0.00000000
       -2.43833454    -1.99500530     5.22136446
PRIMCOORD
6 1
Ti      0.60439094     2.99261503     1.30534126     0.00061141    -0.00061141     0.00000000
Ti      1.83386943    -0.99767040     3.91602337    -0.00061141     0.00061141     0.00000000
O       0.20155307     0.99748165     0.85051767    -0.00067157    -0.00125701    -1.02075533
O       2.23670718     0.99746288     4.37084702     0.00067157     0.00125701     1.02075533
O      -0.20152636    -0.99745979     3.46119979    -0.00125701    -0.00067157    -1.02075533
O       2.63978649     2.99240422     1.76016485     0.00125701     0.00067157     1.02075533
