# total energy = -19914.50400632 eV

CRYSTAL
PRIMVEC
        7.31851426     0.00000000     0.00000000
        0.00002397     3.33819090     0.00000000
        0.00000000     0.00000000    11.13820669
PRIMCOORD
24 1
Ti      2.65262350     1.97820885     4.13219524    -0.47599570     0.37306232     1.06222184
Ti      4.66591440     1.35998210     7.00601161     0.47599570    -0.37306232    -1.06222184
Ti      6.31175537     1.35998324     1.43686363    -0.47501843    -0.37292734    -1.06146362
Ti      1.00678253     1.97820782     9.70134332     0.47501843     0.37292734     1.06146362
Ti      2.65261168     0.30911345     1.43690832    -0.47599570     0.37306232    -1.06222184
Ti      4.66592622     3.02907755     9.70129864     0.47599570    -0.37306232     1.06222184
Ti      1.00677071     0.30911221     7.00596693     0.47501843     0.37292734    -1.06146362
Ti      6.31176719     3.02907879     4.13223993    -0.47501843    -0.37292734     1.06146362
O       2.31636432     1.17543375     5.68374166     4.63878013    -0.42846216     0.92744353
O       5.00217358     2.16275714     5.45446519    -4.63878013     0.42846216    -0.92744353
O       1.34295230     1.17544722     0.11467407    -4.63829702    -0.42855112     0.92735509
O       5.97558565     2.16274373    11.02353246     4.63829702     0.42855112    -0.92735509
O       5.00216181     0.49366170     0.11463794    -4.63878013     0.42846216     0.92744353
O       2.31637609     2.84452925    11.02356859     4.63878013    -0.42846216    -0.92744353
O       5.97557388     0.49364823     5.68377779     4.63829702     0.42855112     0.92735509
O       1.34296396     2.84454272     5.45442906    -4.63829702    -0.42855112    -0.92735509
O       0.26591302     2.03047692     3.00870753     0.24627089    -0.25518723     0.49716540
O       7.05262489     1.30771398     8.12949932    -0.24627089     0.25518723    -0.49716540
O       3.92517945     1.30768287     2.56043131     0.24837560     0.25524790    -0.49748242
O       3.39335845     2.03050808     8.57777538    -0.24837560    -0.25524790     0.49748242
O       0.26590125     0.36138147     2.56039577     0.24627089    -0.25518723    -0.49716540
O       7.05263665     2.97680948     8.57781093    -0.24627089     0.25518723     0.49716540
O       3.39334668     0.36141257     8.12953481    -0.24837560    -0.25524790    -0.49748242
O       3.92519122     2.97677838     3.00867198     0.24837560     0.25524790     0.49748242
