# total energy = -19519.11927154 eV

CRYSTAL
PRIMVEC
        7.60600008     0.00000000     0.00000000
        0.00000000     7.60600008     0.00000000
       -1.89786986    -1.89786986     4.85670466
PRIMCOORD
23 1
Ti      3.82313799     6.69631201     1.18160099     0.23783947     0.14014883     0.03108876
Ti      3.80317499     2.88307402     1.18172397    -0.14935030    -0.25053301     0.86483252
Ti      0.01886199     6.60468200     1.18206000    -0.16613523     0.29134492     0.16636226
Ti     -0.01498101     2.72707098     1.22427400     0.33459423     0.13113377    -0.47503848
Ti      5.54958422     2.83504823     3.79130681     0.69287811    -0.02086862    -1.16619549
Ti      5.69590125    -0.90041880     3.59921282    -0.22676958    -0.48079030     0.15159281
Ti      1.98115623     2.91993625     3.65565879     0.51394906    -0.24279502    -0.09880830
Ti      1.89234324    -0.93022079     3.55559682     0.27581622     0.33674728     0.63137550
O       3.89196400     4.75723701     0.79061002     0.04413917    -0.17066398    -0.18888256
O       3.71990403     0.98164698     0.74723601     0.01294345     0.64561967     0.40848828
O      -0.11430800     4.60024801     0.80117901     0.27182973     1.98942009     0.88946138
O       0.14906299     0.91125201     0.74217601     0.14617781    -0.58494753     0.46709146
O       5.72770221     4.71759825     4.06702980     0.52262371    -0.40983708     0.24632257
O       5.53744923     0.90838720     4.04464883     0.66670607    -0.16668365     0.06767609
O       1.90506123     4.83095622     4.01721179    -0.58061804    -1.36065041     0.69890503
O       1.86265423     1.01685023     3.87402283    -0.15526512    -0.09180256     1.11312353
O       3.84100523     2.90033923     3.28602382    -1.57336557     0.09957398    -1.20484021
O       3.83325321    -1.08942578     3.31815684    -0.17520686     0.58985808    -0.88194630
O      -0.00539777    -0.91474775     3.17774283     0.13809632    -0.11039833    -0.29545560
O       5.68866502     6.79466399     1.60899899     0.39054969    -0.38602300    -0.25139948
O       5.84160603     2.72848198     1.79737799    -0.65690682    -0.04780377    -0.15434209
O       1.97091702     6.44811898     1.65865402    -0.85290517     0.45738888    -0.74640387
O       1.85804499     3.00566000     1.68894799     0.28837992    -0.35743849    -0.27300755
