# total energy = -19518.96395923 eV

CRYSTAL
PRIMVEC
        7.60600008     0.00000000     0.00000000
        0.00000000     7.60600008     0.00000000
       -1.89786986    -1.89786986     4.85670466
PRIMCOORD
23 1
Ti      3.77078400     6.68957600     1.26837701     1.15893186     0.42963767    -0.64748218
Ti      3.83218898     2.93421800     1.16571599     0.04939477    -0.49579655     1.67485090
Ti      0.03379897     6.66669200     1.21922301    -0.96172021    -0.87689794     0.53465827
Ti     -0.02130399     2.80932598     0.98084099    -0.10515147     0.93387464     1.14346025
Ti      5.66722921     2.82180821     3.63510581    -1.01731468    -0.36197315     0.46372151
Ti      5.66652323    -1.08149076     3.60951982     0.74348772     0.50567653    -0.67802921
Ti      2.08700321     2.90286023     3.68151280     0.22020967     0.34605056    -0.43141662
Ti      1.89547825    -0.91157576     3.70321780    -0.41570357    -0.15163266     0.02163507
O       3.90850899     4.76911799     1.01893598    -0.38154259     0.00741172    -1.24350653
O       3.64426798     1.04371301     0.83428498     0.42777310    -0.57835907    -0.54689853
O      -0.26474902     4.70542500     0.77439000     1.24365206     0.64229395    -0.11736268
O      -0.16533598     0.93305797     0.72197600     0.65885057    -1.31232779     0.27452810
O       5.61744421     4.67399225     4.08480180     0.86633533     0.59526537    -0.54726337
O       5.81890220     0.92816224     4.00644081     0.41520786    -0.07893727    -0.97951276
O       1.93225924     4.80197323     4.08584983    -0.12783787    -0.68044270     0.25618250
O       1.74875825     1.07814123     4.00788779     0.03569104    -0.27346238     0.68541933
O       3.87370521     2.67499724     3.26943782    -0.96982150     0.51007620    -0.79535023
O       3.82084623    -0.92190276     3.20572281    -0.43450708     0.36738635     0.93421839
O       0.04195524    -0.94409577     3.20722679    -0.14613384    -0.23906640    -0.00691910
O       5.71650302     6.57367899     1.64986999     0.18742321     0.61282215     0.10522912
O       5.81594701     2.76828198     1.69073100    -0.24849618     0.04595874    -0.48063963
O       1.98130000     6.57323099     1.63504298    -2.01649536     0.16707060    -0.13031050
O       1.67118801     2.95166698     1.75030302     0.81776743    -0.11462831     0.51078788
