# total energy = -19073.11931113 eV

CRYSTAL
PRIMVEC
        5.93400000     0.00000000     0.00000000
        0.00000000     9.29699974     0.00000000
        0.00000000     0.00000000     4.64899994
PRIMCOORD
22 1
Ti      4.48566103     6.77482000     2.47513800    -2.18737865     0.19433151    -1.35955306
Ti      4.44661103     2.52774600     2.10199401    -0.13859922    -0.74242380     0.41106093
Ti      1.40422401     7.23898597     2.57087500     2.64120450     0.86063751     0.20486172
Ti      1.56354298     2.20610201     2.18127799     0.84138122    -0.12966104     0.00095234
Ti      3.02559500     4.57597301     4.40878200    -0.02079406     0.15371217     0.77559670
Ti      3.02952600     0.04321801     4.64524501     1.50617027    -0.17198090     0.45897628
Ti      5.79470600     4.53370402     4.42329098     0.24747803    -0.46733571     1.03428525
Ti      0.02548200     9.24840699     0.34393299    -1.15565833     0.38074401     0.83622719
O       4.32758800     5.36781300     0.96980399     0.26643503     0.47061490     0.47441447
O       4.36637802     0.77687702     1.11549998     0.97470094     0.65663325    -0.16117198
O       1.66711101     0.47133199     1.32619100    -1.19296094     2.33492635    -0.15008100
O       4.58898802     8.47916303     3.96730698    -0.84747783    -0.64829850    -1.53638846
O       4.41106100     4.18804899     3.26905702    -0.29241398    -1.82087547    -0.79288429
O       1.44913502     8.67130898     3.77878002    -0.42624227    -0.13355395    -0.68772510
O       1.40937798     4.00256099     3.57394699     0.51272290    -0.87235351    -0.34775006
O       2.86664799     6.21362700     3.47861899    -0.25810774     0.15415209    -0.07824795
O       3.09315797     1.71243102     3.19609501    -0.69101277    -1.13124056     2.09830044
O       0.04019800     6.25024998     3.50479199     0.47604918    -0.50351089     0.27019579
O       2.89380198     7.67286301     1.47737901     0.47162971    -0.31065443    -0.08182950
O       2.98826102     2.83151401     1.05132798    -1.59352482     2.41971648    -1.24710454
O       5.88427602     7.88081300     1.57430301    -0.73312463    -1.04964117    -0.09558337
O       5.87254802     3.00349302     1.02993498     1.59952321     0.35606218    -0.02655154
