# total energy = -19072.53126510 eV

CRYSTAL
PRIMVEC
        7.60600008     0.00000000     0.00000000
        0.00000000     7.60600008     0.00000000
       -1.89786986    -1.89786986     4.85670466
PRIMCOORD
22 1
Ti      3.59802599     6.80438201     0.82378599     1.41942148     0.69942542     3.67628473
Ti      4.13201298     3.09675199     1.21346302    -0.63273895    -1.78717704     0.37813614
Ti     -0.17462399     6.49170901     1.15630098    -0.98932975    -0.51294556    -1.36346783
Ti      0.17728401     2.65444199     1.19997800    -0.33215271     0.10295832     0.23692390
Ti      5.93047420     2.69098422     3.75067881     0.37834748     0.39146089    -0.27945048
Ti      5.41886225    -1.21389478     3.72101879     1.93128280     0.69679493    -0.80565496
Ti      2.10406722     2.82009722     3.46729079     0.50256549    -0.45314167     0.67527607
Ti      1.17099623    -0.50160077     3.78041883    -1.73414571    -1.77942593     1.46777906
O       3.96338202     4.84270602     0.58147102    -0.54168613     1.19893722     0.67634256
O       3.90185803     1.12007202     0.92952402    -1.19854384    -0.49038386    -0.00229857
O       0.07251702     4.54243899     0.80654799    -0.11075237     0.27143120     0.28905329
O       6.88829799     0.96345000     0.66379899     0.38333465    -0.33310119     0.30548162
O      -1.54361480     4.63680421     4.10930784    -0.47334155     0.38784951     0.16819315
O      -1.01798780     0.23969523     4.19061883     0.89400401     0.76128439    -0.18482022
O       1.60712623     5.07426620     4.01554879    -0.22717916    -0.12417096    -3.20286322
O       2.25626622     0.86639625     4.03456679     1.04965660     2.22593133    -0.13799321
O       4.05078523     2.73612023     3.48886884    -0.80281055     0.37497857    -1.07379361
O       0.26667221     2.45426222     3.25980579    -0.65949052     0.15428424    -0.80880662
O       5.68797301     6.64680298     1.61697300    -2.32969621    -0.82157832     1.73174764
O       5.85287602     3.12643597     1.89376398     0.52335493    -0.38938523    -1.42514013
O       1.41759701    -0.73758699     1.96332898     2.05493722     0.35450975    -0.62838607
O       2.07146001     3.21430300     1.62494601     0.89496278    -0.92853600     0.30745674
