# total energy = -19518.63079269 eV

CRYSTAL
PRIMVEC
        7.60600008     0.00000000     0.00000000
        0.00000000     7.60600008     0.00000000
       -1.89786986    -1.89786986     4.85670466
PRIMCOORD
23 1
Ti      3.85818000     6.87740001     1.08329399    -0.73550701    -0.58284076     1.85378586
Ti      3.62679100     2.92657901     1.35598501     1.37381086    -0.36002991    -1.14987001
Ti     -0.04371898     6.61123401     1.20260801     1.15135971     0.01270228    -1.14787072
Ti      0.05043800     2.67469101     1.15450400    -1.02539257     0.16049346     0.04664420
Ti      5.68345320     2.74874121     3.74843081    -0.40208186     0.71349605    -1.90582604
Ti      5.66781220    -1.04110777     3.52304379    -1.36612866    -0.72967986     0.85017209
Ti      1.99076921     2.91711123     3.84363382    -0.29070523    -1.76208358    -1.51863447
Ti      1.77961521    -0.87658577     3.51985481     2.13318569     1.16207427     0.48555044
O       3.93056198     4.74881902     0.79630201    -0.49348590     0.28352079     1.49943270
O       3.86770000     1.04188698     0.79009698     0.03580648     0.44855097     0.05442513
O       0.10282099     4.70448302     0.71973900     0.24457679     0.09278215     1.53760022
O      -0.08972798     0.81882300     0.70772102     0.10365072     0.61959984     0.07609774
O       5.89523221     4.67785222     3.97501281    -0.45251458    -0.19206045     0.49995839
O       5.74163820     0.80524320     4.09961982     0.25192269     0.91968857    -1.09021808
O       2.03699723     4.77357023     4.06168580    -0.92889287     0.75425422    -0.52307313
O       1.66119021     0.97449721     4.10970779     0.13014800    -0.00709265    -0.63982543
O       3.76862024     2.87116325     3.25407379     1.43142982    -0.27565887     0.42685213
O       3.78002920    -1.09900976     3.07884881     0.74118298     0.39856022     0.40720504
O       0.02539723    -1.13801880     3.22513579    -1.17254020     0.03575737    -0.78523474
O       5.70198901     6.87188503     1.57224599     0.69736185    -0.84074359     0.23396508
O       5.94618399     2.92811198     1.78665199    -0.23697404    -0.65896164     0.42703031
O       1.87612100     6.92049398     1.61216802    -0.23945593    -0.57701336    -0.17879098
O       1.86924699     2.68975197     1.65173000    -0.95075702     0.38468474     0.54062375
