# total energy = -19960.19531581 eV

CRYSTAL
PRIMVEC
        5.29867678     0.00000000     0.00000000
        0.00002637     5.10230911     0.00000000
        0.00000000     0.00000000     9.05450861
PRIMCOORD
24 1
Ti      1.92053114     3.02362360     3.35915819    -0.20774418     0.66431905    -1.00281417
Ti      3.37817201     2.07868540     5.69535072     0.20774418    -0.66431905     1.00281417
Ti      4.56977718     2.07868715     1.16806010    -0.20192912    -0.66441496     1.00287022
Ti      0.72892602     3.02362211     7.88644898     0.20192912     0.66441496    -1.00287022
Ti      1.92051800     0.47246915     1.16809642    -0.20775550     0.65871816     1.00195465
Ti      3.37818520     4.62984000     7.88641265     0.20775550    -0.65871816    -1.00195465
Ti      0.72891283     0.47246730     5.69531445     0.20151337     0.65890945     1.00303142
Ti      4.56979032     4.62984191     3.35919452    -0.20151337    -0.65890945    -1.00303142
O       1.67707396     1.79660971     4.62044655     0.00892019    -0.61282704     0.45868729
O       3.62162925     3.30569929     4.43406236    -0.00892019     0.61282704    -0.45868729
O       0.97231405     1.79663035     0.09322125    -0.00970283    -0.61275299     0.45843738
O       4.32638920     3.30567871     8.96128747     0.00970283     0.61275299    -0.45843738
O       3.62161606     0.75454469     0.09319189    -0.00832935     0.61347598     0.45878756
O       1.67708714     4.34776432     8.96131682     0.00832935    -0.61347598    -0.45878756
O       4.32637602     0.75452410     4.62047596     0.00929017     0.61312194     0.45850140
O       0.97232708     4.34778495     4.43403301    -0.00929017    -0.61312194    -0.45850140
O       0.19252931     3.10351365     2.44584873     0.36857446    -0.13226274     0.20871606
O       5.10617389     1.99879540     6.60866019    -0.36857446     0.13226274    -0.20871606
O       2.84187240     1.99874791     2.08143452     0.36944709     0.13189610    -0.20874460
O       2.45683076     3.10356114     6.97307429    -0.36944709    -0.13189610     0.20874460
O       0.19251613     0.55235904     2.08140558     0.36870944    -0.13182745    -0.20882790
O       5.10618703     4.54995001     6.97310319    -0.36870944     0.13182745     0.20882790
O       2.45681762     0.55240653     6.60868909    -0.36911182    -0.13228356    -0.20871580
O       2.84188558     4.54990247     2.44581983     0.36911182     0.13228356     0.20871580
