# total energy = -19960.80282179 eV

CRYSTAL
PRIMVEC
        5.93400000     0.00000000     0.00000000
        0.00000000     9.29699974     0.00000000
        0.00000000     0.00000000     4.64899994
PRIMCOORD
24 1
Ti      4.45875501     7.10410102     2.44299398    -0.40179595    -1.49648621    -1.40719151
Ti      4.43653898     2.25403103     2.33305100     0.15312956     0.88982751     1.18269349
Ti      1.47593102     6.92895399     2.40491401     0.34344834    -0.03502512    -0.18523108
Ti      1.49165801     2.37961500     2.14719802    -0.26886190     0.64177510     1.37725923
Ti      2.92885098     4.63410101     0.01487401     1.78109715    -0.39982135    -0.70695901
Ti      2.96845699     9.24734397     4.63911502    -0.63156936     0.22270621    -0.06592182
Ti      0.03181800     4.72732802     0.03744199    -2.05497733    -0.96640759    -0.36086680
Ti      5.93144598     0.04009502     0.01392101     0.52267256     0.32610291    -0.08861645
O       4.39531100     5.54265300     0.86244700     0.37354183     0.27720025     0.30507204
O       4.41542598     0.87673298     0.81097303     0.94077908     0.29515838     0.11854076
O       1.42650100     5.52773502     0.93117701     0.73092325     0.36282239     0.41984408
O       1.53759599     1.01493699     0.85477700    -0.59749631    -1.67358001    -1.57626886
O       4.51561399     8.35861502     3.79134200    -0.24388080     0.37744220     0.23645133
O       4.41379002     3.68736899     3.79605300     0.10596034    -0.41781265    -0.84903591
O       1.50969502     8.21423800     3.81391998    -0.33942868     1.35826134     0.53514498
O       1.49279902     3.77689499     3.65846999    -0.20102460    -0.10964011     0.46055802
O       2.97142800     6.07351002     3.24786898    -0.17846908     0.14135313    -0.42400386
O       2.95335501     1.30231902     3.08940299     0.22453684     0.09945108     0.63697587
O       0.00156001     6.06586002     3.25849099    -0.14211084     0.13441270    -0.27715937
O       0.08233501     1.31595502     3.08751202    -0.58377433    -0.35172241     0.81872080
O       2.99128802     7.95692202     1.46237699    -0.27077172    -0.28707354     0.06855566
O       3.04130702     3.13183401     1.29162800    -0.42255762     0.29176195     0.78875921
O       5.86836102     7.85140101     1.44880502     0.77083527     0.72877663    -0.33850437
O       5.88007599     3.29947000     1.50148901     0.38979378    -0.40948304    -0.66881617
