# total energy = -4985.01272417 eV

CRYSTAL
PRIMVEC
        4.13580403     0.00000000     0.00000000
        1.94625355     3.64924267     0.00000000
       -3.04106765    -1.82464465     5.46198878
PRIMCOORD
6 1
Ti      1.45959258     2.73707254     1.36549683     0.00061552    -0.00061552     0.00000000
Ti      1.58139720    -0.91247466     4.09649128    -0.00061552     0.00061552     0.00000000
O       0.48660625     0.91230602     0.88971323    -0.00046923    -0.00059778    -2.29345315
O       2.55438336     0.91229185     4.57227494     0.00046923     0.00059778     2.29345315
O      -0.48656694    -0.91228239     3.62070762    -0.00059778    -0.00046923    -2.29345315
O       3.52755646     2.73688017     1.84128049     0.00059778     0.00046923     2.29345315
