# total energy = -19959.97552705 eV

CRYSTAL
PRIMVEC
        7.60600008     0.00000000     0.00000000
        0.00000000     7.60600008     0.00000000
       -1.89786986    -1.89786986     4.85670466
PRIMCOORD
24 1
Ti      3.73897399     6.53752099     1.27916000     0.06884825    -0.66126664    -0.57811610
Ti      3.71568802     2.75801600     1.25316698     0.16354382     0.94503066    -0.54160077
Ti      0.07885302     6.75582201     1.18693102    -0.46113164    -0.41898173     0.70967462
Ti     -0.03992902     2.95829001     1.09186698     0.65957331     0.58292767     0.44339333
Ti      5.72175024     3.10219024     3.57929480     0.84463316    -1.31898567     0.34979357
Ti      5.70964123    -0.90544979     3.57512780     1.60923195     0.75980549     0.44881656
Ti      1.82980920     2.72001223     3.62752180    -0.59572405    -0.03197348     0.09513008
Ti      1.90325022    -1.15113779     3.71269981    -1.16772967     0.40789718    -0.65934397
O       3.53810698     4.73129600     0.75537999     1.10175308    -1.04809877     0.01268429
O       3.69222298     0.89322903     1.07572702     0.67755587    -0.91284043    -1.55174155
O       0.14938600     4.78479402     0.79992899    -0.43476008     1.26460784    -0.60374873
O       0.20939501     1.07704599     0.71251902    -1.11412215    -0.99815892     0.12871359
O      -1.40153177     4.83549725     4.16659879    -1.80973128     0.34333033    -0.68077181
O       5.76122421     1.08742623     4.01650983    -0.93592998    -1.02746591    -0.67209459
O       1.57443022     4.60211622     4.13665381     1.30210997     2.57023534    -0.01078295
O       1.99023024     0.82316622     4.01490182     0.08759520    -0.21676490     0.58971975
O       3.72430324     2.94557224     3.11698783     1.47033551     0.22918359     1.73463601
O       3.83722320     6.23611624     3.21493182    -0.23012410     0.53930966     0.65935836
O      -0.06333680     2.92137524     3.24923484     1.34018082    -1.20588691    -0.76531125
O      -0.02030379    -0.89510977     3.20788482     0.81167443     0.37099695     0.14022390
O       5.78311199     6.59115099     1.56043698    -1.17128885     0.37491069     0.09812542
O       5.80326502     3.24417601     1.63581002    -1.83610284    -0.92389541    -0.24814060
O       1.84935400     6.49804199     1.72660800     1.37499203     0.50246214     1.06167548
O       1.94379102     2.85624500     1.64072798    -1.75538251    -0.12637877    -0.16029240
