# total energy = -19958.34903034 eV

CRYSTAL
PRIMVEC
        7.60600008     0.00000000     0.00000000
        0.00000000     7.60600008     0.00000000
       -1.89786986    -1.89786986     4.85670466
PRIMCOORD
24 1
Ti      3.65096599     6.66418401     1.15719603     1.35110081    -1.06118749     0.80089302
Ti      3.93687998     2.89662001     1.13701802    -1.81659741     1.50167316     0.12282370
Ti     -0.09406401     6.50750601     1.26637101    -1.53884669     0.06493683    -0.60693947
Ti     -0.01449099     2.72611598     1.19253300     1.68637331     0.95444167     2.44911911
Ti      5.83364223     2.68767220     3.61744981    -0.97197943     3.17877352     1.18844994
Ti      5.65865125    -0.94723580     3.76200082     0.25419658    -4.28281077    -2.19922579
Ti      1.92808721     3.01722824     3.50423583     0.99446502    -0.54821828     0.67870464
Ti      1.91354621    -0.98869980     3.61419881    -0.91593939     0.70988776     0.05397982
O       3.98094902     4.84616102     0.72211300    -0.35161340     0.05395231     0.35420842
O       3.50126799     0.98220801     0.76129101     1.10206264     1.26581729    -0.30483627
O       0.13993701     4.80296698     0.61573102    -0.93835993    -2.72459543     1.73393976
O      -0.30417098     0.83132899     0.86542902     0.70878553     1.82875874     0.62286643
O       5.77621221     4.69110721     4.21961780    -0.95109872     1.65426459    -1.57792748
O       5.87624020     0.84940124     4.29867482     0.19450428     0.46800677    -3.23548822
O       1.97657625     4.83343224     4.10132382    -0.00401118     0.38423891    -0.63613487
O       1.78093323     1.21960624     4.07805579     0.56288437    -2.82603423    -0.99022964
O       3.89796820     2.89124023     3.12321281     0.88273101    -0.72398615     0.10657792
O       3.73836824    -1.07773175     3.20114284    -0.41777357     1.07827376     0.73761403
O       0.02121720     3.11298222     3.50482882     0.41054979    -1.15470677    -2.37369166
O      -0.12630175    -1.21759277     3.23914480     0.58204912     1.00748355     0.53189356
O       5.55341800     6.50219302     1.66600800     0.78036687     1.17576000     0.76256788
O       5.86502699     2.99386802     1.59039100    -0.83293000    -0.40717522     0.06221506
O       1.77883800     6.65770699     1.61582299     0.92304103     0.19321230     1.07969301
O       2.05611000     3.34115202     1.59190101    -1.69396063    -1.79076605     0.63892786
