# total energy = -19073.64654581 eV

CRYSTAL
PRIMVEC
        7.60600008     0.00000000     0.00000000
        0.00000000     7.60600008     0.00000000
       -1.89786986    -1.89786986     4.85670466
PRIMCOORD
22 1
Ti      3.73904802     6.35566500     1.01492699     0.47801865     2.37406061     2.23182070
Ti      3.78187698     2.86069898     1.21161799    -0.49118707    -2.20329327     0.12777025
Ti      0.06856698     6.83862698     1.13004802    -0.06552510    -1.93594807     1.07910731
Ti     -0.08633998     3.03595100     1.26507701    -0.04350308    -0.03574066    -0.87481020
Ti      5.78416722     2.89832322     3.67894581    -0.88403764    -0.21878682    -0.59670107
Ti      5.97218321    -0.94932779     3.74285783    -1.04566444     1.17307577    -2.24312919
Ti      2.00584224     2.76620322     3.56962880    -0.58543192    -0.60334455    -0.69998927
Ti      1.91862721    -1.04200578     3.77639079    -1.02860517     0.47398947     0.15636812
O       3.31284602     4.54564501     0.62984899     0.71695187     1.88304400     0.02884599
O       3.59804699     0.76775300     1.15615498     0.89358004     0.47776977    -1.90531568
O       0.12129600     4.92100203     0.72845598    -0.54160000    -1.66064529    -0.33191129
O      -0.15661599     1.00914599     0.87586799     0.29261247     1.19428275    -0.91840430
O       6.00149725     4.85510723     4.02217182     0.28337424     0.36589845     1.08393353
O       5.71166422     1.09013424     3.62949383     0.01528599    -1.48202504     1.60976366
O       1.78048121     4.68195520     3.99869482    -0.06939847    -0.23972383     0.57624511
O       1.76458620     0.77794422     4.00061584     0.68530595     1.03027510     0.49324010
O       3.81285925     3.28842221     3.35280482     0.09686789    -1.44305532    -0.90691147
O      -0.01230977     2.88872320     3.07045082    -1.20174126     0.18119136     1.50515340
O       5.54558602     6.11397498     1.90802499    -0.35107501     1.95299474    -0.45459126
O       5.61534402     2.95708502     1.40688302    -0.20437887     0.38053909     0.48621096
O       1.80063000     6.67370000     1.88889798     0.31690015    -0.56793530    -0.07664950
O       1.71139198     2.99714199     1.68328098     2.73325054    -1.09662347    -0.37004642
