# total energy = -19517.12505567 eV

CRYSTAL
PRIMVEC
        5.93400000     0.00000000     0.00000000
        0.00000000     9.29699974     0.00000000
        0.00000000     0.00000000     4.64899994
PRIMCOORD
23 1
Ti      4.36331599     7.00976301     2.22762900     0.69346072     0.08263272    -0.91807906
Ti      4.48955000     2.37283799     2.32958002     0.74651905    -0.32692849    -0.84749120
Ti      1.38727198     6.94089000     2.32237802    -0.71271675     0.64620511     0.03704935
Ti      1.48226601     2.26573098     2.34637097    -0.61280313     0.27474819    -0.00865357
Ti      2.99179502     4.51542598     0.06382402    -0.56781857     0.92520359     0.69131179
Ti      2.94036498     0.13358000     0.01033298    -0.63855093    -0.52011225     0.42782658
Ti      5.92532398     4.62883998     4.61379600     0.38080006     1.27839102     0.52531102
Ti      5.88340902     9.25682598     4.54305099     0.95030553    -0.28978169     0.20829466
O       4.34225801     5.61459502     0.94842200     0.05865948    -0.96857889    -0.68735640
O       4.64963199     0.90337700     0.88990801    -1.30778285     0.10096726     0.01264263
O       1.44700000     5.61375601     1.11631301     0.79781129    -1.62143133    -1.87529058
O       1.48579801     1.00816601     0.91008999     0.88679901    -0.40164117    -0.10243125
O       4.70265598     8.22633600     3.61751701    -1.40219302     1.34303526     1.60492741
O       4.42775797     3.77713698     3.78834702     0.07521225     0.09260423    -0.26250305
O       1.65147801     8.53901202     3.64606300    -0.04480612    -0.43241986     0.33649222
O       1.42852198     3.67649699     3.88375498     0.55048213     0.17359709    -0.38746436
O       3.15201000     1.55728001     3.29409102    -1.58090841    -1.15853797     0.50097527
O       0.03004102     5.99360399     3.27799398     0.03034186    -0.35581921     0.84403409
O       5.90998202     1.34644902     3.18522598     0.56886373     0.48947240     0.11623293
O       2.96846598     7.89019901     1.33413200     0.16617252     0.01641573     0.68297138
O       3.01668800     3.30215902     1.37203998    -0.35875953    -1.31670638     1.48697390
O       5.90483699     7.71692098     1.46194402     0.37256096     1.74935636    -1.46007629
O       5.92740402     3.33758299     1.62597097     0.94835047     0.21932829    -0.92569750
