# total energy = -4982.21266607 eV

CRYSTAL
PRIMVEC
        2.74500331     0.00000000     0.00000000
        1.26190930     4.11172236     0.00000000
       -0.00000840    -0.00005637     4.35132854
PRIMCOORD
6 1
Ti      2.00345216     2.05583304     2.17566427     0.00000000     0.00000000     0.00000000
Ti      0.00000000     0.00000000     0.00000000     0.00000000     0.00000000     0.00000000
O       1.61842756     0.80130323     0.84800983    -6.71216631     2.99088520     3.63884457
O       2.38847680     3.31036284     3.50331866     6.71216631    -2.99088520    -3.63884457
O       0.38502115     1.25450699     3.02367506     6.71022641    -2.98881469     3.63612177
O       0.87687993     2.85715888     1.32765348    -6.71022641     2.98881469    -3.63612177
