# total energy = -19939.67826057 eV

CRYSTAL
PRIMVEC
        6.40499399     0.00000000     0.00000000
        0.00002417     4.09011013     0.00000000
        0.00000000     0.00000000     9.78221281
PRIMCOORD
24 1
Ti      2.32151640     2.42379546     3.62913120    -0.04075431     1.64476821    -1.44310932
Ti      4.08350134     1.66631462     6.15308172     0.04075431    -1.64476821     1.44310932
Ti      5.52390319     1.66631600     1.26193618    -0.03946619    -1.64479547     1.44437764
Ti      0.88111460     2.42379424     8.52027679     0.03946619     1.64479547    -1.44437764
Ti      2.32150452     0.37874045     1.26197542    -0.04075431     1.64476821     1.44310932
Ti      4.08351321     3.71136974     8.52023761     0.04075431    -1.64476821    -1.44310932
Ti      0.88110267     0.37873896     6.15304248     0.03946619     1.64479547     1.44437764
Ti      5.52391507     3.71137122     3.62917039    -0.03946619    -1.64479547    -1.44437764
O       2.02722943     1.44019727     4.99178834     2.07884489    -1.09746756     1.78545697
O       4.37778836     2.64991276     4.79042458    -2.07884489     1.09746756    -1.78545697
O       1.17532181     1.44021378     0.10071337    -2.07806328    -1.09799747     1.78552459
O       5.22969603     2.64989630     9.68149923     2.07806328     1.09799747    -1.78552459
O       4.37777648     0.60485764     0.10068162    -2.07884489     1.09746756     1.78545697
O       2.02724130     3.48525239     9.68153098     2.07884489    -1.09746756    -1.78545697
O       5.22968410     0.60484118     4.99182004     2.07806328     1.09799747     1.78552459
O       1.17533358     3.48526890     4.79039283    -2.07806328    -1.09799747    -1.78552459
O       0.23272286     2.48783684     2.64241973     0.43985524     0.09645986     1.69370198
O       6.17229493     1.60227319     7.13979314    -0.43985524    -0.09645986    -1.69370198
O       3.43522722     1.60223516     2.24871780     0.44038411    -0.09617523    -1.69411207
O       2.96979051     2.48787492     7.53349491    -0.44038411     0.09617523     1.69411207
O       0.23271093     0.44278172     2.24868658     0.43985524     0.09645986    -1.69370198
O       6.17230680     3.64732830     7.53352613    -0.43985524    -0.09645986     1.69370198
O       2.96977864     0.44281980     7.13982431    -0.44038411     0.09617523    -1.69411207
O       3.43523910     3.64729023     2.64238850     0.44038411    -0.09617523     1.69411207
