# total energy = -39033.19840026 eV

CRYSTAL
PRIMVEC
        5.93200024     0.00000000     0.00000000
        0.00000000     9.29399984     0.00000000
        0.00000000     0.00000000     9.29399984
PRIMCOORD
46 1
Ti      4.49813400     6.85388702     6.93228299    -1.55178500    -0.17893959     0.27092470
Ti      4.34708803     7.07414297     2.30438801     2.92808521    -0.74827820     1.07609140
Ti      4.45404602     2.45555601     6.88337802    -0.68501618     0.15359313    -0.38700285
Ti      4.38201700     2.47427401     2.19674500     1.15040608    -0.89569246     0.31263418
Ti      1.47726698     7.03956500     6.98523299     1.88287559     0.17621885    -0.55590562
Ti      1.49037401     6.99323802     2.32494099    -2.48629727    -0.99138021    -0.01906474
Ti      1.42846498     2.19660799     7.20956801     0.46572209     0.79945269     0.62118672
Ti      1.41937002     2.11198302     2.35831498    -0.02531509     1.26164979    -0.99938971
Ti      2.98920301     4.53254401     4.46496803    -0.34873582     0.18600807     1.56590911
Ti      3.01288999     4.86982598     9.25781401    -0.37184105    -1.27162773    -0.05885772
Ti      2.94855002     9.23287002     4.75163398     1.77947093     0.55976073    -0.39146783
Ti      2.94551202     0.03918399     9.23362601     0.14115464    -0.28642820    -0.95989190
Ti      0.07219798     4.69093100     4.67266602     0.25987383     1.00823200     0.03486006
Ti      0.02550999     4.83498299     9.11028998     0.11181603    -2.89735254     2.66283777
Ti      0.05734498     9.16826902     4.90568398    -1.94380536     0.47791195    -0.51974895
Ti      5.83383400     0.02867601     9.27361202    -0.25814348    -1.36206426    -0.28204344
O       4.36802101     5.42552099     5.64947500     0.86676445     0.07251182    -0.90642861
O       4.47044099     5.55609998     0.92208099    -0.11265318    -0.63849797    -0.09459709
O       4.49804197     1.05568099     5.50694602     0.25785089    -0.92981204    -0.43539180
O       4.58177898     0.66843601     1.16738200    -1.33849058     1.91888931    -0.37017420
O       1.51234799     5.64590300     5.54199698    -0.59235565    -0.73389467    -0.36301470
O       1.58740702     5.59111299     0.94569102    -0.23372853    -0.19581915    -0.54798739
O       1.48892899     0.81471198     5.65663799     0.32273270     0.64517538     0.46121057
O       1.40159998     0.95068900     0.71066102     1.18150384     0.61186879     2.65516405
O       4.40242102     8.22092701     8.35181700    -0.27525984     1.12564352     0.51515902
O       4.52008898     8.25765398     3.94359201    -0.85939155     0.80917249    -1.07322514
O       4.57864800     3.98208003     8.25031498    -0.49156245    -0.90553104     0.32745608
O       4.52838002     3.62712100     3.83004402    -0.31738481    -0.37876709    -1.08639253
O       1.38376501     8.72741701     8.12040202     1.45458133    -2.47116478     0.07290726
O       1.49848699     8.36472199     3.94316798     0.12413008    -0.49889267    -2.00085996
O       1.54221798     3.46192202     8.67831100     0.36378886     1.58551172    -0.56166952
O       1.35037001     3.99026698     3.46643199     0.65476123    -2.59586205     0.87274715
O       2.94198802     5.96219102     7.85995002    -0.70378113     0.74668746    -0.09256155
O       2.86717902     5.88576401     3.10882400     1.03149509     1.81140610    -0.05739450
O       3.11634700     1.36554200     7.86340201     0.19314031     0.69708340     0.23293072
O       2.99735303     1.43605799     3.22217202    -1.05888918    -0.01560737    -0.16475121
O       0.09841501     6.17775799     7.95315502     0.49680648     0.21252824    -0.24074996
O       5.87196799     6.11521601     3.18249500     0.79925188    -0.06361631     0.68537922
O       5.73792401     1.37346399     7.95965300     0.21060814     1.21269802    -0.90882514
O       3.07136201     7.68923300     6.13188700    -0.76794175     2.09517629    -1.24198984
O       3.07920802     7.95228902     1.36862700    -2.31975298    -0.22618209     0.48149118
O       2.93995698     3.31434401     6.13793401    -0.36157797    -0.97353417    -0.19382757
O       5.90968399     7.73540699     6.02382001     0.13501896     0.26225236     0.41285787
O       5.85009498     7.68979202     1.25957097     1.26717381     0.68119141     0.76303891
O       0.20790898     3.20686499     6.21305300    -0.50241097     0.40995715    -0.87758340
O       5.89343798     3.09957801     1.32984201    -0.47289264    -0.26163633     1.36601168
