# total energy = -19075.32659672 eV

CRYSTAL
PRIMVEC
        7.60600008     0.00000000     0.00000000
        0.00000000     7.60600008     0.00000000
       -1.89786986    -1.89786986     4.85670466
PRIMCOORD
22 1
Ti      3.96061400     6.68871000     1.14932700     0.65889171    -0.73847869     0.16901513
Ti      3.59909900     2.72527601     1.15882399     0.91979656     1.58488051     0.65079350
Ti      0.06542901     6.78107101     1.10528400    -0.74495968    -1.33753490    -0.22010965
Ti     -0.09278001     2.90627898     1.15256001    -1.15640267     0.87538613    -0.63369283
Ti      5.59489121     2.87649122     3.50393779     0.48357789    -0.71444633     0.81011814
Ti     -1.25057475    -0.91904578     3.83908681    -2.60351237     0.53854193    -2.42671142
Ti      1.82901623     2.81490520     3.65850782    -0.05683040    -0.92601889     0.28875248
Ti      1.46910924    -0.99145078     3.80283780     1.97100430     0.40500058    -1.16231390
O       3.72672703     4.64056798     0.74078100    -0.08998582     1.46884350     0.40356436
O       4.04966099     0.95829502     0.85823400    -0.93263819    -1.91812260     0.54905903
O      -0.11756699     4.75003999     0.67399798     0.46818006     0.68051187     0.28376916
O       7.32476799     1.02387802     0.61285298     0.94509648    -1.01942735     1.65569129
O       5.70080720     4.81101825     4.02463381     0.79681653     0.39527538    -0.73567568
O       5.66326223     0.96414523     4.00065282     1.09291157    -0.56979421    -0.46767381
O       2.25270120     4.80145522     4.16330582    -1.09506101    -0.48453768    -0.56632322
O       1.99647924     0.82493521     4.07009279    -1.15585554     0.25827538    -0.51672559
O       3.72571222     2.63870325     3.13887381    -0.37253782     0.76959574     0.11527622
O      -0.07003878     2.79992525     3.19050881     0.82483257     0.42001248     0.63097903
O       5.91633199     6.61310200     1.84548502    -1.11770010     0.24458913     0.80620878
O       5.68583699     2.83120100     1.54835602    -0.95897504     0.53757288     0.74256932
O       1.81437300     6.76263898     1.88637301     0.85586991    -0.39446702     0.01242975
O       1.75047601     2.79448801     1.65472498     1.26748080    -0.07565808    -0.38900034
