# total energy = -19929.47398064 eV

CRYSTAL
PRIMVEC
        6.16107094     0.00000000     0.00000000
        0.32769112     6.54904945     0.00000000
        0.00000000     0.00000000    11.03041028
PRIMCOORD
24 1
Ti      2.42728125     3.88096048     4.09220354    -0.01180137    -1.09772647     0.67481199
Ti      4.06148054     2.66808873     6.93820687     0.01180137     1.09772647    -0.67481199
Ti      5.44702735     2.66809097     1.42295758     0.07376395     0.59103179    -0.55351526
Ti      1.04173452     3.88095849     9.60745295    -0.07376395    -0.59103179     0.55351526
Ti      2.26343583     0.60643600     1.42300179    -0.01180137    -1.09772647    -0.67481199
Ti      4.22532598     5.94261339     9.60740874     0.01180137     1.09772647     0.67481199
Ti      0.87788908     0.60643357     6.93816260    -0.07376395    -0.59103179    -0.55351526
Ti      5.61087278     5.94261582     4.09224781     0.07376395     0.59103179     0.55351526
O       2.06540337     2.30603155     5.62873394     1.48464396     1.45592550    -0.13104481
O       4.42335843     4.24301766     5.40167647    -1.48464396    -1.45592550     0.13104481
O       1.24594053     2.30605797     0.11356425    -1.26301324     1.06483408     0.19283024
O       5.24282133     4.24299130    10.91684584     1.26301324    -1.06483408    -0.19283024
O       4.25951300     0.96849300     0.11352848    -1.48464396    -1.45592550    -0.13104481
O       2.22924880     5.58055621    10.91688161     1.48464396     1.45592550     0.13104481
O       5.07897590     0.96846663     5.62876977     1.26301324    -1.06483408     0.19283024
O       1.40978584     5.58058271     5.40164064    -1.26301324     1.06483408    -0.19283024
O       0.42316626     3.98350298     2.97958905     0.46086219     0.06273983     0.57515805
O       6.06559560     2.56554623     8.05082142    -0.46086219    -0.06273983    -0.57515805
O       3.43276129     2.56548521     2.53565123     0.52255146     0.60259610    -0.08878048
O       3.05600057     3.98356400     8.49475899    -0.52255146    -0.60259610     0.08878048
O       0.25932083     0.70897831     2.53561602     0.46086219     0.06273983    -0.57515805
O       6.22944103     5.84007089     8.49479419    -0.46086219    -0.06273983     0.57515805
O       2.89215514     0.70903933     8.05085655    -0.52255146    -0.60259610    -0.08878048
O       3.59660672     5.84000988     2.97955379     0.52255146     0.60259610     0.08878048
