# total energy = -19960.15075578 eV

CRYSTAL
PRIMVEC
        7.60600008     0.00000000     0.00000000
        0.00000000     7.60600008     0.00000000
       -1.89786986    -1.89786986     4.85670466
PRIMCOORD
24 1
Ti      3.74723698     6.60093199     1.27336498     0.28913326    -0.73301998    -0.32540228
Ti      3.84786401     2.85096302     1.23026699    -2.16126446     0.63895537    -1.98013223
Ti      0.01011702     6.59276398     1.17771302     0.15172471     2.39390079     1.67868210
Ti      0.00917101     2.98851503     1.12668398     0.74889347    -2.09206037     1.86145547
Ti      5.73517324     2.91298725     3.59368382     2.03221072    -0.13818656    -0.11094289
Ti      5.66982424    -0.97513979     3.66074783     1.83329339     0.22132090     0.51814201
Ti      1.93399923     2.89534522     3.59598781    -1.73265009    -0.86291165     0.88394739
Ti      1.90044124    -1.01674677     3.67516680    -1.74991866     0.50522479     0.05104876
O       3.62972899     4.71214402     0.66136800     0.63506554    -0.97271168     1.98096861
O       3.57164301     0.78732600     0.82403301     1.00252620     3.00512834     0.23544860
O       0.05521599     4.82686700     0.77527002    -0.66060741    -0.58753406    -0.78301613
O       0.14128302     1.02360401     0.80077102    -1.09303704    -1.12438162    -0.56152785
O       6.01823523     4.77086222     4.04004483    -1.26782815    -0.47078793     0.14138759
O       5.98235320     0.97896024     4.15402580    -1.38267680     0.32684827    -1.93348264
O       1.68632623     4.68682522     4.25295184     0.73813417     0.73175500    -2.45315343
O       1.74046424     0.95990520     4.03092282     1.20431982    -1.72987896     0.50279458
O       3.78551322     2.94819622     3.16430781     0.92465877    -0.41181529     0.86307749
O       3.79072022    -1.14230175     3.27701579     0.14696894     0.29919039     0.87680358
O      -0.00010975     2.73655024     3.14160383    -2.04052387     0.53684294     0.26481755
O      -0.01462080    -1.05576375     3.16526880     0.32687886     0.47302942    -0.21769950
O       5.68412399     6.54385101     1.63403902     0.06928457     0.50303549    -0.13787546
O       5.61937799     3.03168202     1.59804999     1.19841477    -0.40899633    -0.24853835
O       1.90954299     6.56327700     1.67766000    -0.76723161    -0.11506951     0.72080698
O       1.79128801     3.03169002     1.75019401     1.55423115     0.01212198    -1.82761022
