# total energy = -19902.48694331 eV

CRYSTAL
PRIMVEC
        7.64846820     0.00000000     0.00000000
        0.00003231     6.01673103     0.00000000
        0.00000000     0.00000000    12.17753962
PRIMCOORD
24 1
Ti      2.77222102     3.56550929     4.51778034     0.50344533    -0.86296076     1.27501079
Ti      4.87627955     2.45122195     7.65975934    -0.50344533     0.86296076    -1.27501079
Ti      6.59632302     2.45122404     1.57094084     0.50481804     0.86336725    -1.27510052
Ti      1.05217755     3.56550747    10.60659898    -0.50481804    -0.86336725     1.27510052
Ti      2.77220500     0.55714391     1.57098967     0.50344533    -0.86296076    -1.27501079
Ti      4.87629558     5.45958754    10.60655015    -0.50344533     0.86296076     1.27501079
Ti      1.05216153     0.55714161     7.65971052    -0.50481804    -0.86336725    -1.27510052
Ti      6.59633905     5.45958983     4.51782917     0.50481804     0.86336725     1.27510052
O       2.42079990     2.11859332     6.21410526     0.76197781     1.48874564    -1.30161786
O       5.22770075     3.89813792     5.96343443    -0.76197781    -1.48874564     1.30161786
O       1.40350175     2.11861759     0.12537462    -0.76163740     1.48931283    -1.30275917
O       6.24499896     3.89811372    12.05216473     0.76163740    -1.48931283     1.30275917
O       5.22768473     0.88977233     0.12533511    -0.76197781    -1.48874564    -1.30161786
O       2.42081592     5.12695890    12.05220423     0.76197781     1.48874564     1.30161786
O       6.24498294     0.88974813     6.21414477     0.76163740    -1.48931283    -1.30275917
O       1.40351763     5.12698317     5.96339492    -0.76163740     1.48931283     1.30275917
O       0.27790621     3.65971688     3.28945725    -1.40247276     0.30755856    -0.00672292
O       7.37059444     2.35701436     8.88808243     1.40247276    -0.30755856     0.00672292
O       4.10214855     2.35695824     2.79935131    -1.40230255    -0.30745546     0.00672678
O       3.54635209     3.65977306     9.37818817     1.40230255     0.30745546    -0.00672678
O       0.27789019     0.65135136     2.79931242    -1.40247276     0.30755856     0.00672292
O       7.37061046     5.36537995     9.37822706     1.40247276    -0.30755856    -0.00672292
O       3.54633607     0.65140748     8.88812126     1.40230255     0.30745546     0.00672678
O       4.10216457     5.36532376     3.28941836    -1.40230255    -0.30745546    -0.00672678
