# total energy = -19961.38377040 eV

CRYSTAL
PRIMVEC
        7.60600008     0.00000000     0.00000000
        0.00000000     7.60600008     0.00000000
       -1.89786986    -1.89786986     4.85670466
PRIMCOORD
24 1
Ti      3.69646798     6.69931202     1.29496801     1.54622139    -0.12025388    -0.87562344
Ti      3.79722100     2.97131698     1.26106601    -0.10411429    -0.01867341    -0.69452593
Ti      0.09477099     6.57778302     1.17168098    -2.00240288     1.21839893     0.36205105
Ti      0.01970598     2.88551898     1.17577502     0.15777452    -1.09519368    -0.61172043
Ti      5.72633725     2.81887720     3.60996983    -0.35992964    -0.90491475    -0.46999835
Ti      5.73544524    -1.06843480     3.61287084     0.19902660     0.81132579    -0.30065669
Ti      1.85116622     2.95117623     3.59709479     0.59402815    -0.51495924     0.91485258
Ti      1.86792923    -0.92202378     3.65613483    -0.57268105     0.06546571     1.59085319
O       3.76017299     4.83528600     0.73505498     0.27979141    -0.13909956     0.96414630
O       3.65813602     0.95716300     0.80069302     0.38206941     0.00396104     0.34873865
O       0.11438701     4.73215697     0.68695499    -0.49185196    -1.11650428     0.99436012
O       0.12285601     0.84945702     0.73297198    -0.17429849     0.60339777     0.35826690
O       5.84948420     4.65500023     4.03564779    -0.25894541     0.68084405    -0.39010926
O       5.68700123     0.86907023     4.03019981    -0.33758494     0.42057170     0.40034611
O       1.77310220     4.78120525     4.14578879     0.05791669     0.37934944    -0.82623022
O       1.85144324     1.05895723     4.21962579     0.48559724    -1.49845490    -1.75322561
O       3.76829623     2.88981823     3.21953979     0.25988155    -0.01944629     0.45984249
O       3.73512422    -1.09499277     3.21614480     0.57573706     0.47709382     0.44393378
O       0.03548324     2.69683824     3.18845682    -0.64997769     0.28720621    -0.51686083
O      -0.01524777    -0.95652180     3.18204779     0.91240335     0.08507192     0.45799463
O       5.78752803     6.64385900     1.65925897    -1.27101838    -0.20746650    -0.35546106
O       5.69060800     2.97237099     1.69680500     0.79975608    -0.24346659    -0.99959360
O       1.86281103     6.41375702     1.68738400     0.70623859     0.66537578     0.06582824
O       1.90372601     2.90905001     1.57348998    -0.73363705     0.18037092     0.43279190
