# total energy = -4927.99670769 eV

CRYSTAL
PRIMVEC
        5.27116332     0.00000000     0.00000000
       -0.00000689     2.25907014     0.00000000
       -2.63561189    -1.12961680     5.72038830
PRIMCOORD
6 1
Ti     -0.00022523     1.69437276     1.43009702    -0.03459549    -0.02773527    63.21119553
Ti      2.63576951    -0.56491936     4.29029117     0.03459549     0.02773527   -63.21119553
O       0.00005601     0.56475369     0.93180450     0.03374780     0.02732132   -55.86358290
O       2.63548811     0.56469965     4.78858375    -0.03374780    -0.02732132    55.86358290
O      -0.00002204    -0.56479458     3.79199866    -0.00130021     0.00023089    -0.80568556
O       2.63556610     1.69424787     1.92838959     0.00130021    -0.00023089     0.80568556
