# total energy = -19958.54520817 eV

CRYSTAL
PRIMVEC
        7.60600008     0.00000000     0.00000000
        0.00000000     7.60600008     0.00000000
       -1.89786986    -1.89786986     4.85670466
PRIMCOORD
24 1
Ti      3.69218498     6.56120898     1.37455098    -1.67334989     0.69924030    -1.02991746
Ti      3.72029800     2.98356298     1.26132102     2.37083542    -1.31065298     0.10578731
Ti     -0.11854999     6.62140601     1.10131300     1.56396175    -1.50137311     1.33915984
Ti      0.07763702     2.80092402     1.14630699    -0.34129325     1.07949632    -0.97433713
Ti      5.79650621     2.90362923     3.55886581    -0.91510121    -0.25689804     0.45263619
Ti      5.80223423    -1.01866176     3.63681981     0.46592932     0.40349982    -0.46584421
Ti      1.81125524     2.93344223     3.71444784     2.00881033     0.39730346     0.08892601
Ti      1.83075024    -0.94210479     3.72160184     0.07535289    -0.30374998     0.32437435
O       3.70298501     4.80459398     0.74638001     0.53763201     0.35353659     0.35872867
O       3.58729200     1.17322697     0.78193199     0.97603252    -2.96445373     1.31792997
O       0.10540100     4.71446499     0.64238398    -0.43983390    -0.14078903     0.16805456
O       0.35153700     0.81966900     0.67062300    -1.37370930     2.04323536     0.98719419
O      -1.42621778     4.72600021     4.14557384    -1.28369084    -0.53143359    -1.48901150
O       5.92291522     0.95671320     3.92108282    -0.97785980    -1.08078984     0.16716470
O       1.50043124     4.78578221     4.19210582     0.94709731    -0.24049722     0.66871513
O       1.84722723     0.98802621     4.11757179     0.66540920     0.90643556    -1.44384774
O       3.81175623     3.19316724     3.40359880     0.41857909    -0.88464853    -1.61072834
O       3.74022422     6.27009122     3.37727980     1.02494803     1.20303324    -0.80274473
O       0.09184824     2.78902923     3.13435882    -0.35507899    -0.31011732    -1.12537150
O       0.02370222    -1.09116280     3.14189679    -2.39408540     1.27201854    -0.50033712
O       5.59463699     6.55205601     1.48520702     0.82585227     0.57674313     0.91020274
O       5.86974301     3.10696601     1.49626899    -0.72348427    -1.10584499     0.92004030
O       1.76695702     6.29010401     1.76066500     2.01547823     1.39611056    -0.36327799
O       2.01722003     2.94953302     1.38724102    -3.41843076     0.30059601     1.99650323
