# total energy = -19517.74948251 eV

CRYSTAL
PRIMVEC
        5.17600016     0.00000000     0.00000000
        0.00000000     5.50899976     0.00000000
        0.00000000     0.00000000     9.26300011
PRIMCOORD
23 1
Ti      1.88625601     3.19235701     3.41447001     0.30864871     1.02393373     1.43638974
Ti      3.26552101     2.18024599     5.84926301     1.39440104     0.86310962    -2.10842724
Ti      4.39531999     2.11335301     1.53757202     1.40114633    -1.56009276    -0.65227266
Ti      0.87526801     3.33853799     7.82270801    -1.58085571     1.04301364     0.34351879
Ti      2.00972598     0.27825600     1.32444101    -0.89933391     0.65380658    -1.40758669
Ti      3.25158100     5.10694099     7.93965200    -0.54184014     0.93750041     0.67936104
Ti      0.70651502     0.65505201     5.83787601    -1.13605881    -0.81251287    -1.94166440
Ti      4.53768301     4.90369798     3.40045401     0.16190448     1.12742607     2.83959320
O       1.69613199     1.97459898     4.71874201    -1.07120348    -1.50605535     1.05270644
O       3.44547498     3.56425500     4.48689602     0.79425983     0.61596224     0.05107498
O       0.18784401     2.49362597     0.03534698     0.42352538     0.45325506    -0.34319818
O       3.51583100     0.67496601     0.19061102     0.26663018     0.73779864     0.61881951
O       1.58457100     4.76574200     9.00475002    -0.05283670    -0.32656236     0.81907792
O       4.32893301     0.87950301     4.69757402    -1.06603659    -0.05002006     0.18677194
O       0.98369002     4.80476798     4.43627498     0.08071107    -0.45485480     0.57892677
O       0.11881199     3.34409102     2.66078899     0.18672387    -0.18416125    -1.34273213
O       5.02143098     2.25000102     6.62636700     0.06085315    -0.15354428     0.60485301
O       2.67712898     1.89570400     2.25649800    -0.34045121     0.68070290    -0.66068660
O       2.53858101     3.62146499     6.99362702    -0.08258284    -1.84221178     0.16279229
O       0.31748899     0.76489000     2.22597701    -0.49246003    -0.81497727    -0.81576248
O       4.86503100     4.83493002     7.15324598     1.97295885    -0.15410092    -0.07644458
O       2.38959100     0.74768999     6.84111898    -0.19595104     0.66099307     0.19164702
O       2.83700100     4.67897403     2.39455500     0.40784730    -0.93840749    -0.21675796
