# total energy = -39034.88935696 eV

CRYSTAL
PRIMVEC
        7.60600008     0.00000000     0.00000000
        0.00000000     7.60600008     0.00000000
       -3.79573973    -3.79573973     9.71340985
PRIMCOORD
46 1
Ti      2.03623744     4.74655345     6.06244360     0.06929151     0.23036964     0.15797301
Ti      3.78140098     6.87889800     1.26309402    -0.17938002    -0.85716780    -0.11544180
Ti      2.06395447     0.76412544     6.06501265     0.28775129    -0.53207920     1.36134924
Ti      3.70461202     2.85665501     1.27081202     0.24289940    -0.95661888     1.49085832
Ti     -1.76889355     4.76967247     6.09320462    -0.18358455     0.84307841    -1.01622736
Ti      0.03457401     6.67393199     1.22139898     0.44103023     0.18649169    -1.90281733
Ti     -1.84855155     0.92979946     6.09720160    -0.98379057    -1.06913940    -1.53636352
Ti     -0.13962400     2.91806402     1.22763301     0.56486952    -0.55301236    -0.69930484
Ti      3.77022645     1.00986043     8.49542761    -0.55170264    -0.71316823    -0.41713619
Ti      5.58614502     2.73708900     3.75328199    -0.02820990     0.17101982     0.06392973
Ti      3.83146544    -2.76193154     8.38871060    -0.53709362     0.17910851     1.53498027
Ti      5.74227702    -1.06989601     3.39744299    -0.70982168     0.23638140     2.67632141
Ti     -0.09729157     0.99223544     8.29727464     1.57922460     0.72938367     2.99002491
Ti      1.74933600     2.93169398     3.59556902    -0.16327257    -1.35426584     0.67719746
Ti      0.03183943    -2.78100753     8.53658463     0.74913206    -0.42992897     0.11989856
Ti      1.78256902    -0.95726402     3.72869900     1.67056513     0.02646129     0.08595073
O       2.16520243    -1.04469855     5.84448861    -0.75394903     0.81522255    -2.16876874
O       3.75835500     1.00023401     0.71805601    -0.04009405     1.53239708     0.56577506
O      -1.91358257     2.94520245     5.82937563     0.20773930    -2.13567478    -1.29162398
O       0.17319601     4.75288702     0.73729801    -0.31266966    -0.68182262     0.63339124
O      -1.97407456    -0.84585057     5.55120064     0.87171434    -2.27180600     0.93224301
O      -0.01877701     0.91918702     0.78578398     0.03649862     0.93580554    -0.09161410
O       3.58636848     2.78617045     8.88404760     0.67138908     1.86681725     0.22068789
O       5.59046898     4.69682900     4.12085200    -0.08239540     0.41702949    -0.45901870
O       3.89068746    -0.86235958     8.76918465     0.20467249    -1.95217096     1.57234561
O       5.82245902     0.81558999     4.03343202     0.02714906     1.85750728    -0.68259060
O       0.09376746     2.87777146     9.07799164    -0.17914194    -1.46004287    -2.17722382
O       1.89395200     4.71458300     4.09206100     0.59898036    -0.48776519    -0.47929366
O      -0.12072454    -0.71093858     9.15075161    -0.18646213     0.30071197    -1.89767410
O       1.66715102     0.94910702     4.24247598    -0.01540194     0.51295944    -0.96401466
O       1.96738947     0.68608243     8.04067062    -0.79580326     1.29142960     0.13668555
O       3.76480498     2.51184100     3.22058200    -0.10000232     0.80563465     0.41110875
O       2.00092946    -2.58132954     8.02381960    -2.34917155    -0.75741950     0.88051009
O       3.87563200    -0.89603298     3.10426800    -0.47931731    -0.28438340     1.04674919
O      -1.94463855     1.05323847     8.02547762     0.94701941     0.34387798     0.31670218
O      -0.15745600     2.84208798     3.32469599     0.78672623     0.27333048    -0.88378670
O      -1.89820356    -2.83662057     8.13826164     2.32901538     0.13180251    -0.85888479
O       0.04762500    -1.24487302     3.34069900    -1.04716648     0.57872108    -0.87473127
O       3.83427346     4.66541142     6.46870864     1.79553853    -0.51250435     0.19246283
O       5.79999698     6.51655901     1.39445799    -1.81636730     0.03580417     1.91905771
O       3.87362647     0.72020743     6.39119560    -0.25278324     1.83063590     0.23302019
O       5.62114200     2.96727300     1.57883202    -0.15972367     0.26050787     0.31513329
O       0.23217647     4.66685645     6.20005963    -3.30656742    -0.28652410     1.74456819
O       1.86280600     6.63588700     1.72129998     1.16976624     0.20784369    -0.06900304
O       0.05957044     0.82363846     6.56461863    -0.25465218     0.28706429    -2.32205617
O       1.80803102     2.80518998     1.75953600     0.21755243     0.40809799    -1.37134903
