# total energy = -4989.92479805 eV

CRYSTAL
PRIMVEC
        3.96021492     0.00000000     0.00000000
        0.39502472     3.94046414     0.00000000
       -2.17765494    -1.97026385     5.06046078
PRIMCOORD
6 1
Ti      0.29611679     2.95549800     1.26511495     0.00027177    -0.00027177     0.00000000
Ti      1.88146755    -0.98529803     3.79534523    -0.00027177     0.00027177     0.00000000
O       0.09879793     0.98510980     0.82430762    -0.00046794    -0.00100582    -0.60798848
O       2.07878630     0.98509007     4.23615266     0.00046794     0.00100582     0.60798848
O      -0.09877601    -0.98508997     3.35453791    -0.00100582    -0.00046794    -0.60798848
O       2.27636018     2.95528979     1.70592238     0.00100582     0.00046794     0.60798848
