# total energy = -19517.07625271 eV

CRYSTAL
PRIMVEC
        5.17600016     0.00000000     0.00000000
        0.00000000     5.50899976     0.00000000
        0.00000000     0.00000000     9.26300011
PRIMCOORD
23 1
Ti      1.78842802     3.31367698     3.46774800    -0.27440649    -1.55839685     2.53455741
Ti      3.41077799     2.29975199     5.81778601     0.16531402    -0.31623269    -1.73441361
Ti      4.37152998     1.95533301     1.60487299     0.72248360    -0.18576227    -0.78778296
Ti      1.16219098     3.31273198     7.92209401    -3.61516650    -1.16766051     0.00988641
Ti      1.98472600     0.36280599     1.19854202    -0.66314740    -0.49085540     1.32658508
Ti      3.30164201     5.37265100     7.83563697     0.60318154    -1.38089117    -0.66563674
Ti      0.59222200     0.44413799     5.83810800    -0.00531961     1.62023859    -1.78858986
Ti      4.36184397     4.85917602     3.33819800     0.31744651     1.31602890     2.79841492
O       1.48190501     2.09033999     4.95263100     1.07827787     1.20011093    -1.72342292
O       3.37549499     3.70809898     4.59518399     0.14026144     0.27265531    -0.07028267
O       0.42298900     2.53683700     0.17306001    -0.03137673    -0.81421622     0.42758876
O       3.39181000     0.86276800     0.11863302     1.50486030     1.24321497    -0.31499522
O       1.64119302     4.76431301     8.86251199     0.83792874     1.92539934     1.59306665
O       4.26237500     0.92131098     4.58018298    -0.52668194    -0.23637883     0.68965986
O       0.90902502     4.80233397     4.39827100     0.53692059    -0.25888422     0.30575750
O       5.14480902     3.24295001     2.80786799     0.32096918    -1.18890503    -1.46299038
O       4.98041302     1.97644602     6.81721599    -0.14321101    -0.23529999     0.64413589
O       2.50177599     1.88479802     2.31662597     0.41897813     0.41232668    -0.61070330
O       2.87085299     3.49066799     7.27606997     0.43050027    -0.17150421    -0.09313773
O       0.15891902     0.42901601     2.12869100     0.62854471     0.96974977    -1.71164006
O       5.14714598     4.70393098     7.14482502    -0.92590061     0.48775491    -0.03075580
O       2.38882300     0.88176599     6.61004500    -0.06133446    -1.65370177     1.84195030
O       2.86990502     4.54538699     2.25007098    -1.45912190     0.21120978    -1.17725098
