# total energy = -19961.43068911 eV

CRYSTAL
PRIMVEC
        7.60600008     0.00000000     0.00000000
        0.00000000     7.60600008     0.00000000
       -1.89786986    -1.89786986     4.85670466
PRIMCOORD
24 1
Ti      3.82969201     6.47612998     1.24532499     0.16622471     2.28915864    -0.26432442
Ti      3.78128599     2.80483300     1.25046299     0.02810834    -1.73479671    -1.18152236
Ti      0.02103501     6.73306601     1.17750199    -0.06788692    -0.37199274     1.18843271
Ti     -0.00518202     2.92409399     1.17160499     0.14376483     0.16693588     0.48552576
Ti      5.67205023     2.93372322     3.56822383     0.01828286    -0.76679452     0.49788454
Ti      5.70801221    -0.89376979     3.65854582     0.23015084     0.68598806    -0.28163052
Ti      1.85371823     2.80469224     3.59704082     0.08340276    -0.19770197     0.39619249
Ti      1.92211322    -0.99899679     3.60031081    -0.32989451     0.06328644     1.80685113
O       3.80862202     4.67791901     0.89287601     0.13872906    -0.41895293    -0.72285409
O       3.81718199     0.82011202     0.85304299     0.08068613     1.26994108    -0.39973418
O       0.04689399     4.78129198     0.71072997    -0.09788965     1.08467915     0.48012027
O      -0.04758298     1.07224900     0.76081898     0.39514168    -2.16548082     0.66908614
O       5.64179923     4.82103124     4.10675482     0.22151939    -0.40446913    -0.53258596
O       5.69599624     1.02343420     4.15732681    -0.02032561     0.24747417    -2.31469587
O       1.88726023     4.70111824     4.12766484    -0.08793202    -0.46448333    -0.39026764
O       1.85737622     0.90348120     4.03532780     0.12145973     0.64062093     0.67742371
O       3.69468624     2.93934620     3.28722981     2.27426243    -0.27135073    -0.54530984
O       3.79755624    -0.86090180     3.23311684     0.70764421    -0.37426431     0.21195051
O       0.02556820     2.88326024     3.12673083    -1.20509141     0.32655876     0.85224748
O       0.03552520    -0.88049178     3.26453282    -0.52850305    -0.13325364    -0.42716015
O       5.75572199     6.56828302     1.74512402     0.25248937     0.02174537    -1.04032555
O       5.69119798     2.71856499     1.58480501    -0.15115701     0.75806588     1.01297568
O       1.94757702     6.59288399     1.66976002    -1.25651478    -0.12076450    -0.61915992
O       1.94843698     2.83909998     1.58495799    -1.11667165    -0.13014878     0.44088059
