# total energy = -19960.19035925 eV

CRYSTAL
PRIMVEC
        7.60600008     0.00000000     0.00000000
        0.00000000     7.60600008     0.00000000
       -1.89786986    -1.89786986     4.85670466
PRIMCOORD
24 1
Ti      3.70956702     6.73311898     1.30549901     0.52096200     1.73120179     0.56381588
Ti      3.74316301     3.10866599     1.27356200     0.16065030    -2.00718642    -2.20758342
Ti      0.10162399     6.50063401     1.18751502    -0.69427576     2.59722859     0.41210402
Ti      0.03406901     2.89405900     1.08302998     0.31381534    -2.05549232     1.32671312
Ti      5.67781323     2.81062320     3.49034281     0.95138797    -0.28062033     0.26755501
Ti      5.74271523    -1.08171275     3.57710084     0.20938172     0.29368771     1.15734858
Ti      1.88552723     3.06637023     3.67526882    -0.78011130    -2.92060021    -0.59264361
Ti      1.84163325    -0.96930275     3.68162779    -0.11002063     2.66379833     1.04906730
O       3.69409499     4.90438702     0.85899703     0.63159224    -0.82680795    -0.51207344
O       3.67940001     1.00528400     0.76438098     0.41724520    -1.05059402     1.13167508
O       0.11158898     4.69906900     0.62777699    -0.17296203    -0.98944802     0.82278777
O       0.28455999     0.78743199     0.81090799    -0.91020300     0.53086538    -0.35133006
O       5.91371420     4.68509825     4.07785481    -0.85454528    -0.72947237    -1.10445454
O       5.62725320     0.86211822     4.08919783     0.05412714    -0.00589811    -1.18985659
O       1.77754724     4.87390123     4.14119579     0.20570787    -2.26874201    -0.15072558
O       1.81397320     1.04705424     4.15571679     0.35066338     0.36022968     0.39125571
O       3.77909224     2.89952921     3.35724679     0.60429971     0.63254895    -0.31967540
O       3.72038124    -1.03962877     3.21600282     1.20711436     0.37804769     0.33962177
O       0.04428923     2.70878225     3.08345583    -0.69797789     0.87993879     0.37546270
O      -0.00135178    -1.07820479     3.25072981    -0.10874279     0.59314832    -0.37816648
O       5.76274401     6.59717499     1.68908700    -0.91084963    -0.06742026    -0.78135237
O       5.66235401     2.84043499     1.55232702     0.57014208     0.19817993     0.42239255
O       1.86783001     6.28465798     1.73603799     0.39679696     0.96973511    -0.57877482
O       2.00580800     2.68980098     1.71513099    -1.35419822     1.37367202    -0.09316241
