# total energy = -19961.05951995 eV

CRYSTAL
PRIMVEC
        5.13039716     0.00000000     0.00000000
        0.54469575     5.43305781     0.00000000
        0.00000000     0.00000000     9.19380874
PRIMCOORD
24 1
Ti      2.18230847     3.21962506     3.41083755     0.57946542    -0.50638101     0.34669076
Ti      3.49278461     2.21343280     5.78297150    -0.57946542     0.50638101    -0.34669076
Ti      4.64654603     2.21343464     1.18603025    -0.78786163    -0.42677989     0.51309339
Ti      1.02854706     3.21962347     8.00777896     0.78786163     0.42677989    -0.51309339
Ti      1.90996070     0.50309620     1.18606713     0.57946542    -0.50638101    -0.34669076
Ti      3.76513239     4.92996186     8.00774208    -0.57946542     0.50638101     0.34669076
Ti      0.75619921     0.50309420     5.78293468     0.78786163     0.42677989     0.51309339
Ti      4.91889381     4.92996381     3.41087443    -0.78786163    -0.42677989    -0.51309339
O       1.81559979     1.91307203     4.69153035    -0.02614761     0.17202975    -0.30469126
O       3.85949329     3.51998588     4.50227871     0.02614761    -0.17202975     0.30469126
O       1.13322435     1.91309400     0.09465542     0.27872003    -0.39583279     0.21591695
O       4.54186878     3.51996395     9.09915343    -0.27872003     0.39583279    -0.21591695
O       3.58714551     0.80345681     0.09462561     0.02614761    -0.17202975    -0.30469126
O       2.08794757     4.62960109     9.09918324    -0.02614761     0.17202975     0.30469126
O       4.26952100     0.80343489     4.69156021    -0.27872003     0.39583279     0.21591695
O       1.40557202     4.62962302     4.50224890     0.27872003    -0.39583279    -0.21591695
O       0.51771401     3.30469386     2.48347717    -0.24575179    -0.01816125    -0.21746090
O       5.15737901     2.12836404     6.71033189     0.24575179     0.01816125     0.21746090
O       2.96498390     2.12831344     2.11345659     0.31535183    -0.16214848    -0.26764294
O       2.71010918     3.30474441     7.08035236    -0.31535183     0.16214848     0.26764294
O       0.24536623     0.58816480     2.11342720    -0.24575179    -0.01816125     0.21746090
O       5.42972679     4.84489305     7.08038170     0.24575179     0.01816125    -0.21746090
O       2.43776140     0.58821540     6.71036123    -0.31535183     0.16214848    -0.26764294
O       3.23733168     4.84484251     2.48344783     0.31535183    -0.16214848     0.26764294
