# total energy = -4986.14745953 eV

CRYSTAL
PRIMVEC
        4.09313617     0.00000000     0.00000000
        1.75314998     3.69867934     0.00000000
       -2.92318182    -1.84936418     5.36810661
PRIMCOORD
6 1
Ti      1.31475909     2.77415186     1.34202660     0.00052013    -0.00052013     0.00000000
Ti      1.60834551    -0.92483649     4.02607968    -0.00052013     0.00052013     0.00000000
O       0.43833001     0.92466498     0.87442064    -0.00047668    -0.00072994    -2.02924032
O       2.48477444     0.92465026     4.49368570     0.00047668     0.00072994     2.02924032
O      -0.43829313    -0.92464169     3.55847377    -0.00072994    -0.00047668    -2.02924032
O       3.36139751     2.77395688     1.80963256     0.00072994     0.00047668     2.02924032
