# total energy = -4982.61683095 eV

CRYSTAL
PRIMVEC
        2.68344884     0.00000000     0.00000000
        0.83258647     4.12130342     0.00000000
       -0.00000554    -0.00005505     4.22595507
PRIMCOORD
6 1
Ti      1.75801483     2.06062419     2.11297763     0.00000000     0.00000000     0.00000000
Ti      0.00000000     0.00000000     0.00000000     0.00000000     0.00000000     0.00000000
O       1.50398213     0.80317065     0.82357645    -5.10124643     2.57568839     2.90507126
O       2.01204753     3.31807773     3.40237880     5.10124643    -2.57568839    -2.90507126
O       0.25403043     1.25743124     2.93655484     5.10187403    -2.57872101     2.90832087
O       0.57855049     2.86381703     1.28940042    -5.10187403     2.57872101    -2.90832087
