# total energy = -19514.97339506 eV

CRYSTAL
PRIMVEC
        5.17600016     0.00000000     0.00000000
        0.00000000     5.50899976     0.00000000
        0.00000000     0.00000000     9.26300011
PRIMCOORD
23 1
Ti      1.82295001     3.19267399     3.32799303    -0.24495577    -0.85901720     2.69107980
Ti      3.45822699     2.32236802     5.87466500    -1.00166257    -0.10203144    -2.42324994
Ti      4.25870701     2.12862200     1.49158202     1.52841521    -0.98352960    -1.70954872
Ti      0.83480003     3.49702399     7.78983600     0.42393316    -0.31004096     2.70927654
Ti      2.02825999     0.04423901     1.58073098    -0.32178576     0.25494914    -3.09109810
Ti      3.25327299     5.23676998     7.90041197     0.51581465     2.02036102     2.74281607
Ti      0.75621101     0.70186901     6.02212902    -0.30312006     0.45173554    -3.39763515
Ti      4.35946500     4.90964800     3.25627803     1.49860917    -0.65235391     1.27740706
O       1.82689000     1.84480101     4.77109400    -0.49033707     0.56857628     0.01586423
O       3.60533498     3.63639202     4.40676498    -0.80327617    -0.70220170     1.26939678
O       5.08509502     2.91351098     0.06312000     0.05833218     0.56051201    -1.32713607
O       3.67624701     0.54166901     0.27123297    -0.00624238     0.12645616    -0.37696911
O       1.75193701     4.81826703     8.97345400    -1.03249139    -0.96211924     0.38667015
O       4.25944098     0.87352098     5.03542602     0.31857805    -0.55364922    -1.64986594
O       0.91187601     4.68088002     4.20096001     1.47661800     0.45624757     0.75217085
O       0.18044198     3.33030299     2.50534699    -0.15783237    -0.92816704    -0.40517927
O       4.98718702     1.96751700     7.02182999     0.39836250     1.35761548    -0.19683036
O       2.50649001     1.79356300     1.93696299    -1.32057461    -0.07896144     1.48076828
O       2.80157300     3.67364399     7.06193300    -1.79864057    -1.23462928    -0.20280047
O       0.21189501     0.48184600     2.00175202    -0.06735933     1.04514071     0.44387747
O       5.09593098     4.91945699     7.03820501    -0.26447045    -1.79949083     0.77089492
O       2.28885099     1.05410399     7.09916401     0.74287683     0.50903928    -0.31734830
O       2.96101098     3.97355800     1.98450502     0.85120850     1.81555895     0.55743954
