# total energy = -19960.24739352 eV

CRYSTAL
PRIMVEC
        7.60600008     0.00000000     0.00000000
        0.00000000     7.60600008     0.00000000
       -1.89786986    -1.89786986     4.85670466
PRIMCOORD
24 1
Ti      3.77235602     6.64243499     1.18290399     0.55182476    -0.16023918     0.38545941
Ti      3.71162198     2.87645698     1.16408602    -0.54185274    -0.09430656     1.06078485
Ti      0.07676298     6.74201800     1.19374201    -0.35370319    -1.07706431     1.06611501
Ti     -0.09338999     2.88156502     1.20585800     0.74304652     0.80424188     0.04906567
Ti      5.64355324     2.95191623     3.64398582     1.84002789    -0.82459063     0.72524291
Ti      5.67620421    -0.97802180     3.57363181     2.06750607     0.71133066     0.02854337
Ti      1.91615024     2.75063424     3.70951580    -1.18396259     1.22050415    -2.26731839
Ti      1.99268922    -1.07314379     3.70324780    -1.42955651    -1.01613660    -0.46651193
O       3.64358899     4.83741298     0.68730499     0.58759448    -3.03934177     1.10550792
O       3.73441999     0.83365298     0.88733600     0.06394207     2.47823095    -0.28109778
O      -0.02892398     4.76743997     0.76947098    -0.23691413     1.58702379     0.20282849
O       0.08327202     0.97313902     0.73143298    -0.44762666     0.57423991     0.02766739
O      -1.53712677     4.85218824     4.02882781    -0.83316912    -0.94501446     0.35646482
O       5.93236421     1.12853420     4.07631379    -1.21427385    -2.24048224    -0.41326385
O       1.61462922     4.69556024     4.07303681     1.00868117     1.05854902    -0.06588249
O       1.86016625     0.88196723     4.07935979     0.50910793    -0.27473224     0.50174814
O       3.82615922     2.92769520     3.31478683    -1.54540944    -0.16715493    -0.47134175
O       3.88790225     6.26311523     3.13848682    -0.35082124     0.61794559     1.68441592
O      -0.01408479     2.77190822     3.11311679     0.39333394     0.04469247     0.41632038
O       0.03762524    -1.00131676     3.09364979     0.20571121     0.77986242     0.62597515
O       5.72431399     6.77067601     1.61342402    -0.03070413    -0.13345187    -0.57084553
O       5.63632902     3.02480298     1.65345702    -0.82409595    -0.38580986    -1.03778118
O       1.99817901     6.48053099     1.85612799    -0.90435528     0.86396143    -2.04907485
O       1.85862799     2.96919201     1.70166899     1.92566854    -0.38225710    -0.61302193
