# total energy = -19517.96924379 eV

CRYSTAL
PRIMVEC
        5.93400000     0.00000000     0.00000000
        0.00000000     9.29699974     0.00000000
        0.00000000     0.00000000     4.64899994
PRIMCOORD
23 1
Ti      4.44735097     7.05757697     2.22786501     0.37495183    -0.33960763    -0.11909303
Ti      4.53471602     2.38928799     2.34997901    -0.68397823    -1.52042473     0.16788410
Ti      1.41256300     6.98623499     2.23754297    -0.75904161     0.04453538     0.09106594
Ti      1.48977498     2.34395798     2.32475599     0.26016000    -1.37463362     0.52541772
Ti      2.97969200     4.47121697     0.16174800    -0.47341586     1.15930467     0.25088243
Ti      2.99511598     0.06732299     4.59413601    -0.49939969     0.33271707    -0.07994025
Ti      5.92436702     4.56004800     4.64475102     0.23018092     1.61466033    -0.57693674
Ti      5.92660798     0.01385698     4.57083898     0.37050819     0.11896730     0.30722072
O       4.43195001     5.50321400     0.92876502    -0.18490789     0.37872081     0.10599608
O       4.46384199     0.94491202     0.91108701    -0.11643631    -0.08732472     0.01420792
O       1.48694399     5.53601902     0.97827400     0.19948323     0.07671995    -0.17714419
O       1.52201400     1.04379699     0.93012602    -0.23949012    -0.93623800    -0.58810638
O       4.46330202     8.39555699     3.57926798    -0.19007196     0.31090279     1.11546941
O       4.35633000     3.59036202     3.86490298     0.85578866     0.37444840    -0.33292379
O       1.41088598     8.47524902     3.65794102     0.60242846    -0.79106266     0.10371345
O       1.56793902     3.70242303     3.78814201    -0.58092658     0.32629368     0.19396975
O       3.00750101     1.35490802     3.21340102    -0.08546813     0.43348018    -0.10232120
O       5.87942299     6.03228600     3.37300701     0.17104836     0.16427556    -0.90169778
O       0.02612802     1.39979898     3.30625998    -0.37790474     1.08742097    -0.93301949
O       2.90535101     7.88425000     1.36365802     0.26603034    -0.85484455     0.69847874
O       2.91372000     3.35091402     1.53145298     0.89409014    -1.09107657     0.79816791
O       5.90147899     7.72540200     1.33305898     0.29850442     0.99083796    -0.36227217
O       0.03505101     3.37666299     1.57555102    -0.33213369    -0.41807233    -0.19901863
