# total energy = -4987.67144138 eV

CRYSTAL
PRIMVEC
        3.24290821     0.00000000     0.00000000
        0.75790992     5.02430770     0.00000000
       -0.00000476    -0.00006596     5.09558274
PRIMCOORD
6 1
Ti      2.00040639     2.51212078     2.54779131     0.00000000     0.00000000     0.00000000
Ti      0.00000000     0.00000000     0.00000000     0.00000000     0.00000000     0.00000000
O       1.76915851     0.97915065     0.99305399     0.46869377    -0.53876664    -0.64300383
O       2.23165427     4.04509090     4.10252858    -0.46869377     0.53876664     0.64300383
O       0.23124581     1.53294340     3.54084639    -0.46877990     0.53978145    -0.64348874
O       0.52665888     3.49129826     1.55473618     0.46877990    -0.53978145     0.64348874
