# total energy = -4988.25101310 eV

CRYSTAL
PRIMVEC
        2.79228774     0.00000000     0.00000000
        0.43641829     4.35327536     0.00000000
       -0.00000291    -0.00005677     4.38058898
PRIMCOORD
6 1
Ti      1.61435161     2.17660929     2.19029449     0.00000000     0.00000000     0.00000000
Ti      0.00000000     0.00000000     0.00000000     0.00000000     0.00000000     0.00000000
O       1.48119480     0.84837822     0.85371226    -1.49863257     1.03192292     1.06149010
O       1.74750847     3.50484036     3.52687666     1.49863257    -1.03192292    -1.06149010
O       0.13315562     1.32820805     3.04400764     1.49836003    -1.03171620     1.06126847
O       0.30325996     3.02501042     1.33658129    -1.49836003     1.03171620    -1.06126847
