# total energy = -78964.89512001 eV

CRYSTAL
PRIMVEC
       10.35150501     0.00002646     0.00000000
        0.00002858    11.01713167     0.00000000
        0.00000000     0.00000000     9.26345890
PRIMCOORD
94 1
Ti      7.19004019     8.68921196     3.27469269     0.00007945    -0.01321188     0.00170156
Ti      7.10484329     3.33013721     3.49489569     0.00850881    -0.00724357    -0.00137477
Ti      1.79872082     8.76795171     3.47065718    -0.01544488     0.01083438    -0.01158334
Ti      1.84678793     3.40262202     3.48874998     0.00133697     0.00487507     0.01775553
Ti      8.37117121     7.68819869     5.74223315    -0.01187747    -0.00033579     0.00177972
Ti      8.54410998     2.19593698     5.84576341     0.00537361     0.00844968    -0.01224540
Ti      3.32633624     7.64270463     5.79266827     0.00910505     0.00502677     0.01947689
Ti      3.16401792     2.26734097     5.84927855     0.00315166     0.00490412     0.00505633
Ti      9.74381697     7.68800189     1.11032952     0.01175509     0.00030930     0.00202114
Ti      9.57170775     2.19625925     1.21438900    -0.00538338     0.00866128    -0.01226828
Ti      4.43739694     7.64220114     1.16097520    -0.00929583     0.00513527     0.01910073
Ti      4.59932642     2.26730549     1.21719907    -0.00280019     0.00488227     0.00529982
Ti      5.96513830     8.76769503     8.10242449     0.01522916     0.01100330    -0.01172192
Ti      5.91687607     3.40267988     8.12036305    -0.00101636     0.00510158     0.01781107
Ti      0.57360524     8.68934623     7.90636818     0.00010027    -0.01349187     0.00181289
Ti      0.65832207     3.33049138     8.12689375    -0.00807455    -0.00744463    -0.00127090
Ti      7.04425198     6.04159608     1.18411940    -0.00050162    -0.00064818     0.00337895
Ti      7.02034746     0.53580477     1.18815542     0.00839954     0.02236244     0.01644864
Ti      1.90162012     6.05533002     1.22355230     0.00298557    -0.01809672     0.00758244
Ti      1.91200697     0.85916135     1.34611863    -0.01342811    -0.00944958     0.01916578
Ti      8.47582240    10.49412456     8.07005121    -0.00818280    -0.00523477     0.01213073
Ti      8.49328854     4.96405033     8.04672978    -0.02448720     0.00029799     0.02337108
Ti      3.48347498    10.39760175     7.91960043     0.00565694    -0.01557421    -0.00706591
Ti      3.28851549     4.94348931     8.08802690    -0.02152785     0.00846973     0.00988641
Ti      5.86172758     6.05514334     5.85513238    -0.00342960    -0.01763803     0.00780896
Ti      5.85136356     0.85943525     5.97789566     0.01370861    -0.00955474     0.01946969
Ti      0.71957807     6.04169889     5.81584641     0.00040906    -0.00054842     0.00335221
Ti      0.74364265     0.53573696     5.82000788    -0.00850727     0.02255295     0.01644170
Ti      9.63958903    10.49376350     3.43831560     0.00823422    -0.00517255     0.01208650
Ti      9.62130365     4.96412819     3.41536887     0.02455919    -0.00001183     0.02352740
Ti      4.28130054    10.39778804     3.28748000    -0.00573459    -0.01611028    -0.00700009
Ti      4.47479858     4.94335489     3.45634128     0.02156231     0.00910839     0.00976274
O       6.76684056     7.47547808     4.71611158     0.00247315     0.01038829     0.01851478
O       6.84992983     1.92335826     4.72351197     0.02029810     0.02168932     0.00307401
O       1.59675239     7.43126601     4.75219565     0.00706848     0.00618248    -0.01183633
O       1.67841273     1.87636798     4.67895309     0.01304835     0.02455867    -0.00446215
O       8.62331616     9.12504586     4.54707209    -0.00649384    -0.01333940     0.00836663
O       8.73633782     3.58451567     4.54285614    -0.00994452     0.00298351    -0.01540708
O       3.48635384     9.09359877     4.54214096     0.01416087    -0.00862220     0.00019206
O       3.58177702     3.53922006     4.50686399    -0.00736981     0.00330361     0.01143781
O       6.16709363     7.43109137     0.12042902    -0.00758527     0.00641748    -0.01162756
O       6.08501544     1.87633851     0.04723313    -0.01281875     0.02460598    -0.00446626
O       0.99667758     7.47539518     0.08428570    -0.00224920     0.01033430     0.01844793
O       0.91356464     1.92327303     0.09176612    -0.02010449     0.02174743     0.00299045
O       9.49186222     9.12504926     9.17875219     0.00659128    -0.01312394     0.00826764
O       9.37865741     3.58449781     9.17460690     0.00974346     0.00291383    -0.01527107
O       4.27775910     9.09373678     9.17385885    -0.01455425    -0.00882274     0.00003111
O       4.18168997     3.53935068     9.13870452     0.00746957     0.00296140     0.01147484
O       8.72340591     6.33316000     0.07955743     0.02202768     0.00728934     0.00229548
O       8.68705983     0.83978316     0.10293204     0.00663139    -0.00745080     0.01177077
O       3.57375332     6.34659604     0.08732250     0.01008079    -0.01503659    -0.01574570
O       3.22767824     0.57413179     0.05801014    -0.00565514    -0.01429945    -0.02532640
O       6.86455437    10.15189079     9.19083240     0.00665196    -0.00126164     0.01111540
O       6.79552066     4.67359701     9.20225033    -0.01081484    -0.02159368    -0.00356355
O       1.64308477     4.69756355     9.16336044     0.00538209     0.01868216     0.01467766
O       9.39166858     6.33331552     4.71128705    -0.02213001     0.00718135     0.00239241
O       9.42813201     0.83971804     4.73460451    -0.00657097    -0.00752562     0.01178286
O       4.18986299     6.34651293     4.71919007    -0.01042480    -0.01486407    -0.01565982
O       4.53623129     0.57403287     4.68974654     0.00551836    -0.01485070    -0.02534183
O       6.12039574     4.69752011     4.53160461    -0.00572585     0.01872329     0.01475968
O       0.89929147    10.15180543     4.55909568    -0.00653446    -0.00087675     0.01116091
O       0.96795450     4.67371463     4.57043310     0.01110563    -0.02178625    -0.00332469
O       5.41626672     8.98070801     2.67487052    -0.01288046     0.00834889    -0.03081597
O       5.40000516     3.39028330     2.44507523     0.01178388    -0.01294654     0.00778068
O       0.15369956     8.85681688     2.49939763    -0.00390679     0.00309767    -0.00018332
O       0.20575693     3.35588272     2.49970254    -0.00182188     0.01216389     0.01107220
O      10.10531200     7.59817167     6.75471145    -0.01227497     0.01964169     0.00373453
O      10.19587208     2.14431611     6.78474204    -0.01046439     0.00753334    -0.01185150
O       4.96178393     7.66729459     6.77779466    -0.00201780    -0.01234773     0.00216744
O       4.93160317     2.19977616     6.77290146     0.01322550    -0.03329117    -0.02408996
O       8.00990797     7.59805831     2.12305933     0.01222817     0.01943472     0.00379495
O       7.91936371     2.14434317     2.15300692     0.01046259     0.00765880    -0.01182425
O       2.80191636     7.66723989     2.14594646     0.00160823    -0.01229990     0.00244023
O       2.83168403     2.19963633     2.14107346    -0.01296788    -0.03327240    -0.02406605
O       7.61016600     8.85688142     7.13119464     0.00391245     0.00317840    -0.00030802
O       7.55766093     3.35579111     7.13142472     0.00212142     0.01260818     0.01102875
O       2.34758488     8.98095695     7.30687579     0.01313911     0.00844222    -0.03115175
O       2.36337151     3.39043845     7.07676590    -0.01195152    -0.01288046     0.00807070
O       5.39263749     6.16964973     2.16797578     0.02108408    -0.00356304    -0.00709882
O       5.29867460     0.57678016     2.06299782    -0.01058884     0.01330983    -0.01717009
O       0.24041132     6.10817064     2.13478518    -0.01397601    -0.00023114    -0.01579172
O       0.14866555     0.59311644     2.12673267     0.00199183    -0.01037081     0.00333961
O      10.24965598    10.42637356     7.21338183     0.02425348    -0.00171750    -0.01215181
O      10.13028801     4.90654246     7.12645551     0.02060766    -0.01338054    -0.00724846
O       5.11158038    10.40252664     7.08162127     0.01071816     0.00048517    -0.01909970
O       4.96647419     4.89211071     7.11240075     0.00260016     0.01356489     0.00605186
O       7.52306193     6.10825432     6.76656672     0.01363714    -0.00017766    -0.01592722
O       7.61501702     0.59335100     6.75845275    -0.00181057    -0.01050965     0.00319434
O       2.37092149     6.16972491     6.79973058    -0.02127177    -0.00374816    -0.00703043
O       2.46513949     0.57672752     6.69461103     0.01074516     0.01320313    -0.01687596
O       7.86557835    10.42627219     2.58166860    -0.02391564    -0.00161748    -0.01229399
O       7.98454427     4.90642252     2.49477072    -0.02013072    -0.01329209    -0.00704225
O       2.65277444    10.40257626     2.45007958    -0.01137019     0.00067389    -0.01934190
O       2.79703755     4.89212538     2.48059874    -0.00250837     0.01358597     0.00627041
