# total energy = -39040.39437396 eV

CRYSTAL
PRIMVEC
        7.60629642    -0.00000847    -0.00005503
       -0.00000847     7.60629642    -0.00005503
       -3.80314186    -3.80314186     9.70738094
PRIMCOORD
46 1
Ti      1.92039346     4.73653664     6.07517502     0.00441999     0.00520546     0.00481722
Ti      3.80311549     6.64637201     1.20841822    -0.00002263    -0.01279150    -0.00036510
Ti      1.81761379     0.95436925     6.01761610    -0.00803136    -0.00039698    -0.03245428
Ti      3.80307662     2.87348815     1.18487429    -0.00008408     0.02067142     0.02606277
Ti     -1.92066241     4.73646302     6.07527517    -0.00439633     0.00519569     0.00454854
Ti     -0.00000080     6.67441272     1.36614263    -0.00010644     0.01988492    -0.02146383
Ti     -1.81765457     0.95429254     6.01766620     0.00823448    -0.00038849    -0.03233601
Ti     -0.00006045     2.79523259     1.16446726    -0.00007276     0.00091608     0.00517486
Ti      3.80319917     0.93630528     8.63962951    -0.00005476     0.02661273     0.02177237
Ti      5.70935119     2.86041143     3.60674811     0.01210682     0.00499848    -0.00529108
Ti      3.80319676    -2.81509038     8.49869514     0.00003677     0.01429123     0.00144393
Ti      5.67563886    -0.95655018     3.66404812     0.00930148    -0.01338337    -0.01378395
Ti      0.00013190     0.94474873     8.42837676    -0.00025094    -0.00870293    -0.00539263
Ti      1.89717585     2.86044497     3.60675136    -0.01199729     0.00511393    -0.00534970
Ti      0.00008936    -2.89498022     8.49251733    -0.00003780     0.00299019     0.01515614
Ti      1.93076923    -0.95647545     3.66406036    -0.00930277    -0.01343068    -0.01390299
O       2.00365199     2.83069090     5.64763823     0.00389368    -0.00867259    -0.01412616
O       3.80316922     4.75433406     0.75469639     0.00001388    -0.00720141    -0.02966077
O       2.05210374    -0.92620683     5.70215038     0.00073559     0.00381758    -0.00487430
O       3.80315388     0.95411559     0.75780205     0.00005271     0.00316400     0.00156323
O      -2.00378081     2.83065780     5.64766099    -0.00396696    -0.00869676    -0.01406137
O       0.00005112     4.83142747     0.81787235    -0.00002468     0.00791283    -0.00067260
O      -2.05221381    -0.92623027     5.70219303    -0.00076439     0.00385486    -0.00486684
O       0.00009423     0.87029668     0.78397970    -0.00003420    -0.00082481    -0.01978619
O       5.73750173     4.75024949     4.09135780     0.00647224     0.00048234     0.01378575
O       3.80309266    -0.94747513     8.91495948     0.00004782     0.00514941    -0.00366022
O       5.65603056     0.95589442     4.04837393    -0.00723997    -0.00746006    -0.00085695
O      -0.00003439     2.83791127     8.89127478     0.00001311    -0.00310846     0.00228854
O       1.86875979     4.75028322     4.09135429    -0.00636991     0.00050779     0.01382174
O      -0.00004063    -0.92161911     8.83012895     0.00004165    -0.01586577     0.02569201
O       1.95036336     0.95592662     4.04840095     0.00724254    -0.00742355    -0.00097702
O       2.03867580     1.12235976     8.01578019     0.01070711    -0.00457194     0.00860626
O       3.80317124     2.89703056     3.15910754     0.00007945    -0.00069008     0.02669783
O       1.92012780    -2.96534581     8.09965265     0.00534790     0.00543120    -0.01891818
O       3.80316850    -0.99414276     3.22552471     0.00000643    -0.00314215     0.00538363
O      -2.03873240     1.12239861     8.01571923    -0.01075056    -0.00458659     0.00866436
O       0.00002742     2.82225142     3.22290120     0.00003034    -0.00771074     0.02114527
O      -1.92016216    -2.96533732     8.09966000    -0.00528413     0.00546282    -0.01898786
O       0.00001319    -0.92506982     3.32552967    -0.00004988     0.00905003     0.01446966
O       3.80308209     4.71115514     6.50063382     0.00000077    -0.00927397    -0.00375433
O       5.68958420     6.65688512     1.67336916     0.00887417     0.00686253    -0.00090554
O       5.71705422     2.85031524     1.59438045     0.01645532    -0.00235513     0.02046342
O      -0.00002750     4.78096070     6.48055567    -0.00007842    -0.00722660    -0.00576647
O       1.91673870     6.65688789     1.67338412    -0.00896107     0.00690907    -0.00092920
O      -0.00002317     0.90143130     6.44709128     0.00014372    -0.01411562     0.01107297
O       1.88927737     2.85038650     1.59440547    -0.01637639    -0.00246440     0.02051304
