# total energy = -19960.48967182 eV

CRYSTAL
PRIMVEC
        5.93400000     0.00000000     0.00000000
        0.00000000     9.29699974     0.00000000
        0.00000000     0.00000000     4.64899994
PRIMCOORD
24 1
Ti      4.46277898     6.83385099     2.23873198    -0.97599961     1.81152694     0.15979412
Ti      4.42212800     2.30860597     2.30671702    -0.09834396     1.18111844     0.06387394
Ti      1.42840699     6.99369999     2.37643200     0.71638288     1.52704198    -0.58314930
Ti      1.47855002     2.23408798     2.34657000    -0.20732741     0.68020385    -0.14917675
Ti      2.94919202     4.68822002     4.57917400     0.01185690    -0.74985969    -0.52876607
Ti      2.98382498     0.10232600     0.04414000     0.17259488    -2.47038600     0.12001760
Ti      0.05454701     4.61316200     0.03421300    -0.31970343    -0.72376812    -0.61443501
Ti      5.92011000     0.09950400     4.60140902    -0.30222789    -2.28121521    -0.29377179
O       4.30968800     5.49855200     0.91960602     1.52188255     0.51304840     0.04662903
O       4.49614598     0.89343498     0.94966700    -0.09825886     0.89763364     0.86560077
O       1.45705400     5.58668399     0.80404498     0.04781945    -0.25587680     0.54687205
O       1.43640598     0.87889901     0.92944602     0.76820323     1.21055655     1.35141809
O       4.46919102     8.35771298     3.84781702     0.00161183     0.37942940    -0.56799572
O       4.48032798     3.73757299     3.73298799    -0.24289658     0.10917834     0.15004809
O       1.57885203     8.54120202     3.76447700    -0.88389366    -1.37757393    -1.00751363
O       1.42807398     3.73538601     3.63627402     0.20838465     0.31019471     1.33923980
O       2.87834900     6.00163600     3.14191298     0.95035413    -0.08661921     0.57001790
O       3.00400701     1.38022000     3.32218800     0.19440787     1.51703602    -1.41887332
O       5.91486702     6.07188798     3.29755502    -0.19883377     0.23290578    -0.70584393
O       5.91489998     1.48623802     3.33434501     0.41809727     0.15330928    -0.87758931
O       2.95029700     7.82645802     1.39763099     0.36632937     0.01006330     0.74824426
O       3.06236600     3.32883601     1.45438800    -0.60899069    -1.57545330     0.25332060
O       0.07876698     7.88835700     1.36523402    -0.75543076    -1.04912155     1.12471073
O       0.10870698     3.21752997     1.47325899    -0.68601866     0.03662744    -0.59267138
