# total energy = -19517.88017055 eV

CRYSTAL
PRIMVEC
        5.93400000     0.00000000     0.00000000
        0.00000000     9.29699974     0.00000000
        0.00000000     0.00000000     4.64899994
PRIMCOORD
23 1
Ti      4.49148298     6.98207100     2.25617901     0.68058283    -0.01445655     0.31174046
Ti      4.47095302     2.31305001     2.31946099    -0.97901525     0.03276229     0.26234004
Ti      1.52108497     7.06600201     2.24030703    -0.44840081     0.34183729     0.11597968
Ti      1.43422302     2.33221898     2.35256399     1.00941933    -0.81831482    -0.13417795
Ti      2.93088498     4.54805102     0.11986098     0.48121762    -0.19496477     1.14555210
Ti      3.00838198     0.06545499     4.59335802    -0.87009686    -0.31150700    -0.44161027
Ti      5.91868498     4.59168402     4.64508700    -0.24300071     1.10150137    -0.50020882
Ti      5.91559300     0.08065402     4.62262400     0.85969931    -0.67483924    -0.11851967
O       4.46423300     5.47939700     1.03596300    -0.32881233     0.17883212    -0.45073203
O       4.42398801     0.96026499     0.86492900     0.34943696    -0.03052158     0.30053816
O       1.46016302     5.55184698     1.03124898     0.67711518    -0.23190768    -0.66847884
O       1.49042201     0.97086398     0.91049603    -0.48585872    -0.42066606    -0.24367125
O       4.39851601     8.49152699     3.58337598     0.52882778    -0.72008733     0.77023183
O       4.43465199     3.59872000     3.83463600    -0.03950604     0.93782745    -0.05292952
O       1.42248502     8.39480497     3.71939898     0.13108132    -0.18348839    -0.06958848
O       1.60027000     3.69453199     3.83215898    -1.01821611     0.13600729    -0.61852666
O       3.00132201     1.43208202     3.23515200    -0.42107718    -0.02058246    -0.32427254
O       5.92380397     5.91915499     3.30132001    -0.16027337     0.75570483    -0.14564688
O       5.89661199     1.37309902     3.21266303     0.22997344     0.29017352     0.13478062
O       2.99590202     7.97120901     1.30227002    -0.29135726    -1.79268203     1.44056598
O       2.88344799     3.26118599     1.46593301     0.74127837    -0.11698627     0.29078648
O       0.00192901     7.78060799     1.44920900    -0.12354721     1.16506780    -1.00085756
O       0.03065302     3.16814101     1.44297402    -0.27947130     0.59129095    -0.00329513
