# total energy = -19951.19086252 eV

CRYSTAL
PRIMVEC
        5.05412247     0.00000000     0.00000000
        0.00002515     4.86681792     0.00000000
        0.00000000     0.00000000     8.63660821
PRIMCOORD
24 1
Ti      1.83189124     2.88407175     3.20412012    -0.43663261     1.36713833    -2.01285159
Ti      3.22225638     1.98274607     5.43248838     0.43663261    -1.36713833     2.01285159
Ti      4.35886439     1.98274775     1.11414963    -0.43491486    -1.36671950     2.00329865
Ti      0.69528328     2.88407032     7.52245902     0.43491486     1.36671950    -2.00329865
Ti      1.83187871     0.45066289     1.11418428    -0.43689744     1.36609935     2.00226558
Ti      3.22226896     4.41615508     7.52242438     0.43689744    -1.36609935    -2.00226558
Ti      0.69527070     0.45066111     5.43245379     0.43472254     1.36602350     2.01388723
Ti      4.35887692     4.41615690     3.20415477    -0.43472254    -1.36602350    -2.01388723
O       1.59967054     1.71368926     4.40719517    -0.71292938    -1.68533252     0.82741061
O       3.45447713     3.15312855     4.22941333     0.71292938     1.68533252    -0.82741061
O       0.92743802     1.71370894     0.08891873     0.71313172    -1.68602595     0.82725018
O       4.12670970     3.15310892     8.54768958    -0.71313172     1.68602595    -0.82725018
O       3.45446455     0.71971955     0.08889072     0.71347908     1.68552587     0.82669662
O       1.59968312     4.14709827     8.54771759    -0.71347908    -1.68552587    -0.82669662
O       4.12669712     0.71969991     4.40722323    -0.71259025     1.68587837     0.82809684
O       0.92745045     4.14711795     4.22938533     0.71259025    -1.68587837    -0.82809684
O       0.18364334     2.96027456     2.33296340     0.64525072    -0.12900643     0.20770330
O       4.87050433     1.90654331     6.30364511    -0.64525072     0.12900643    -0.20770330
O       2.71070905     1.90649801     1.98536831     0.64560604     0.12906660    -0.20689958
O       2.34343857     2.96031986     6.65124009    -0.64560604    -0.12906660     0.20689958
O       0.18363077     0.52686555     1.98534071     0.64557030    -0.12951731    -0.20695331
O       4.87051685     4.33995232     6.65126765    -0.64557030     0.12951731     0.20695331
O       2.34342604     0.52691085     6.30367267    -0.64549317    -0.12903472    -0.20758066
O       2.71072163     4.33990697     2.33293584     0.64549317     0.12903472     0.20758066
