# total energy = -19070.92886014 eV

CRYSTAL
PRIMVEC
        5.17600016     0.00000000     0.00000000
        0.00000000     5.50899976     0.00000000
        0.00000000     0.00000000     9.26300011
PRIMCOORD
22 1
Ti      1.76075200     3.29118198     3.32265299     1.43924932     0.50378214     0.05379778
Ti      3.60210700     2.20895899     6.04704301     1.58041502     0.39148583    -1.31853264
Ti      4.38933500     2.40234898     1.55825698    -1.13318174    -2.73218816    -1.38319616
Ti      1.12697201     3.05840198     7.96204398    -1.05943991     0.28284099    -0.52268361
Ti      1.72241898     0.52034502     1.14580803     0.34103588     1.01645979     0.26833971
Ti      3.20602799     5.49255902     7.78756598     4.04863846    -5.47951704     3.97699259
Ti      0.79757902     5.41722302     6.13089299    -0.90261001     0.92399954     0.72539795
Ti      4.28865601     5.06969798     3.48611198     2.03347647     1.55751368     2.67403981
O       3.22984102     2.65567598     4.24699499     0.56973096     0.09121352     1.12112609
O       0.42956799     2.07907301     0.11708602     0.70193482     0.63497041     1.39961703
O       5.02796102     4.12962300     7.09455498    -0.73844090    -0.69909864     0.66312143
O       3.43970499     0.64190301     0.42511401     0.95047857     0.31548630    -1.65774278
O       1.58797599     4.99662198     8.93789900    -0.75576063    -2.44336755    -0.92214166
O       3.94842700     0.23484601     5.36960601     1.08301693    -0.17821300    -1.01138263
O       1.25715602     4.57467203     4.62586400    -1.20189707     0.39100580    -0.53124102
O       0.01402299     3.73313399     2.54574401     0.28635081    -0.52577305    -0.91490529
O       0.02865098     1.46141003     7.08928602    -1.63263312     1.04173220    -1.08057618
O       2.43157200     2.28261099     1.81580299     0.53307293     0.75073849    -0.00578061
O       2.51368100     3.67242698     6.70581698    -0.12947386     0.23630735     1.55222800
O       5.17306598     0.89126001     2.37325402     0.33296133    -0.15379959     1.27709595
O       2.32282999     1.16174700     7.08795498    -3.13453896     4.19367804    -2.53981738
O       2.80500800     4.94884998     2.65512098    -3.21238505    -0.11925706    -1.82375665
