# total energy = -19956.27484711 eV

CRYSTAL
PRIMVEC
        5.93400000     0.00000000     0.00000000
        0.00000000     9.29699974     0.00000000
        0.00000000     0.00000000     4.64899994
PRIMCOORD
24 1
Ti      4.53223900     7.03664600     2.59554800    -0.61372847     0.29562195    -1.36203109
Ti      4.47111098     2.46881502     2.13691701     0.63160381    -0.58419779     0.68893198
Ti      1.52034100     6.39182998     2.23166699     0.04851622     3.29825272     1.33295653
Ti      1.48033002     2.49541401     2.38984902    -0.21823095    -1.68095136    -0.86352023
Ti      3.06845402     4.57044199     0.05344600     2.72549943     2.61323166    -0.73829923
Ti      2.81559699     0.31872399     4.40467500    -1.14336152    -3.55866958     3.21250460
Ti      0.04522698     4.38607997     4.64491501    -2.43435120     3.02280546    -0.87866917
Ti      5.84660802     0.22801300     4.60375201     1.67415259    -1.51289037    -0.32582985
O       4.53349600     5.33684401     1.02738101     0.14675631    -0.42389279    -1.03641335
O       4.37412300     1.12295302     0.73889803    -0.49674400     0.91259798     1.87528878
O       1.52918001     5.42141198     0.74986702    -0.80251256    -0.04178018     0.64028283
O       1.39008498     1.33877801     0.68824402    -0.14553143    -0.48495780     1.65569335
O       4.27783502     8.61801802     3.67488300     1.40823280    -0.98383093     0.64623545
O       4.45001099     3.62072197     3.64612598     0.00311104    -0.45454755     1.29976435
O       1.30367001     8.69790998     3.76016902     0.63204887    -1.22829074     1.02619836
O       1.59749801     3.73331999     3.82180002    -0.41483531    -1.79180889    -1.58676256
O       3.13724098     5.95025897     3.53006698    -0.83085332     0.48509021    -1.24252463
O       2.79900702     1.29293798     3.06651199     1.30136281     3.59501162    -3.78393301
O       5.83067301     5.86359900     3.33175299     1.27157734    -0.78046662     1.07190668
O       5.92271800     1.45432498     3.23746302    -0.61051639     1.62926574    -2.26251583
O       2.91583899     7.48330102     1.71400501     0.27462632     0.63227795    -0.87182952
O       2.97930898     3.31254999     1.41713101    -0.52967007    -1.86877026     2.26605881
O       0.17711700     7.58525602     1.61780498    -0.95210685     0.62932813    -0.26926813
O       0.10974702     3.53108099     1.69464702    -0.92504521    -1.71842855    -0.49422509
