# total energy = -19918.76928680 eV

CRYSTAL
PRIMVEC
        7.66658371     0.00000000     0.00000000
        0.00002893     4.89573789     0.00000000
        0.00000000     0.00000000    11.70901230
PRIMCOORD
24 1
Ti      2.77878478     2.90120972     4.34396007     0.53123048    -0.34835530     1.90431269
Ti      4.88782736     1.99452811     7.36505236    -0.53123048     0.34835530    -1.90431269
Ti      6.61194473     1.99452975     1.51049936     0.53098494     0.34809767    -1.90461556
Ti      1.05466747     2.90120826    10.19851313    -0.53098494    -0.34809767     1.90461556
Ti      2.77877056     0.45334084     1.51054633     0.53097439    -0.34601456    -1.90409620
Ti      4.88784158     4.44239711    10.19846622    -0.53097439     0.34601456     1.90409620
Ti      1.05465320     0.45333906     7.36500539    -0.53018121    -0.34588035    -1.90456594
Ti      6.61195894     4.44239889     4.34400698     0.53018121     0.34588035     1.90456594
O       2.42653220     1.72387249     5.97501938     0.88970641     1.29414494    -1.66202906
O       5.24008001     3.17186528     5.73399305    -0.88970641    -1.29414494     1.66202906
O       1.40682459     1.72389226     0.12055085    -0.88941665     1.29415060    -1.66246975
O       6.25978767     3.17184557    11.58846120     0.88941665    -1.29415060     1.66246975
O       5.24006579     0.72399627     0.12051285    -0.88953955    -1.29387498    -1.66221547
O       2.42654641     4.17174149    11.58849920     0.88953955     1.29387498     1.66221547
O       6.25977340     0.72397656     5.97505732     0.88909372    -1.29397628    -1.66235842
O       1.40683868     4.17176126     5.73395505    -0.88909372     1.29397628     1.66235842
O       0.27856221     2.97786531     3.16289634    -2.11050778     0.71394162     0.41289490
O       7.38804999     1.91787245     8.54611603     2.11050778    -0.71394162    -0.41289490
O       4.11186289     1.91782694     2.69164706    -2.11140741    -0.71349990    -0.41342969
O       3.55474925     2.97791089     9.01736512     2.11140741     0.71349990     0.41342969
O       0.27854793     0.52999631     2.69160969    -2.11027793     0.71349296    -0.41337106
O       7.38806421     4.36574146     9.01740249     2.11027793    -0.71349296     0.41337106
O       3.55473503     0.53004188     8.54615334     2.11171337     0.71354670    -0.41337723
O       4.11187710     4.36569588     3.16285896    -2.11171337    -0.71354670     0.41337723
