# total energy = -19516.55324178 eV

CRYSTAL
PRIMVEC
        5.17600016     0.00000000     0.00000000
        0.00000000     5.50899976     0.00000000
        0.00000000     0.00000000     9.26300011
PRIMCOORD
23 1
Ti      1.87474900     3.18808698     3.47112399    -1.93381637    -0.66692975     1.17731732
Ti      3.38355500     2.25313000     5.72072400    -0.78701163    -0.43460118     0.09710135
Ti      4.34077700     2.05183499     1.53012999     3.62068769    -0.75974764    -1.63467046
Ti      0.82138797     3.42258002     7.71455402    -0.53693396    -0.22271392     1.79881052
Ti      2.08557300     0.18805398     1.25037901    -0.33922145     1.76526969     0.19673369
Ti      3.12402001     5.24286398     7.72362100     0.89435342    -0.03606128     1.52196251
Ti      0.79759098     0.55120902     5.94848099    -1.24315686    -1.11382981    -1.72816994
Ti      4.36746997     4.99707200     3.37523501     3.06060531    -0.01588171     2.33290469
O       1.61067802     1.78085899     4.81846102     0.68203679     1.51496551    -1.03119710
O       3.38739402     3.63376699     4.48208601     1.34750975    -0.18959990     0.76696010
O       0.22861902     2.80918702     0.18647201    -0.22453941     0.02141627    -1.22168506
O       3.58536801     0.84702301     0.19252998    -0.14999873     0.70892925     0.45115755
O       2.06899700     4.62476199     9.08286298    -2.02044149    -1.75198428    -0.55675871
O       4.18128399     0.65026100     4.86409399    -0.49411505     0.86350969    -0.10172959
O       0.89059901     4.70886100     4.45780699     0.44145395     0.00308018     1.58103080
O       0.21903398     3.34030201     2.70437902    -1.69948825    -0.95236910    -1.10277355
O       4.92410999     2.11499198     6.78138699     0.91432859     0.44494654     0.10495993
O       2.77690498     1.76632503     2.44224397    -0.58170588     0.39062091    -0.21824509
O       2.60812400     3.55842998     6.94365501    -0.51572903     0.30903746    -0.02737455
O       0.43565702     0.44637599     2.16782202    -1.87495788     1.49641988    -0.95048140
O       4.89582298     4.93892902     7.32368402     1.53383767    -0.71912522    -0.28163309
O       2.26319098     1.16103902     7.07453700    -0.33962871     0.16172733    -0.49031161
O       2.82891802     4.53595498     2.37372801     0.24593151    -0.81707863    -0.68390804
