# total energy = -19950.26451748 eV

CRYSTAL
PRIMVEC
        5.69510759     0.00000000     0.00000000
        0.30290775     6.05374319     0.00000000
        0.00000000     0.00000000    10.19617757
PRIMCOORD
24 1
Ti      2.24370536     3.58744246     3.78270915     0.07082415    -0.90332401     0.61139930
Ti      3.75430975     2.46630050     6.41346853    -0.07082415     0.90332401    -0.61139930
Ti      5.03506729     2.46630257     1.31533894    -0.03344749     0.35631852    -0.38600912
Ti      0.96294788     3.58744062     8.88083886     0.03344749    -0.35631852     0.38600912
Ti      2.09225160     0.56057109     1.31537981     0.07082415    -0.90332401    -0.61139930
Ti      3.90576351     5.49317205     8.88079800    -0.07082415     0.90332401     0.61139930
Ti      0.81149411     0.56056885     6.41342761     0.03344749    -0.35631852    -0.38600912
Ti      5.18652106     5.49317429     3.78275007    -0.03344749     0.35631852     0.38600912
O       1.90919639     2.13162580     5.20303137     1.16945257     1.15842561    -0.11532713
O       4.08881872     3.92211717     4.99314632    -1.16945257    -1.15842561     0.11532713
O       1.15170974     2.13165023     0.10497536    -0.95253571     0.76627053     0.21570998
O       4.84630543     3.92209279    10.09120204     0.95253571    -0.76627053    -0.21570998
O       3.93736496     0.89524563     0.10494229    -1.16945257    -1.15842561    -0.11532713
O       2.06065015     5.15849734    10.09123510     1.16945257     1.15842561     0.11532713
O       4.69485167     0.89522125     5.20306449     0.95253571    -0.76627053     0.21570998
O       1.30316338     5.15852183     4.99311319    -0.95253571     0.76627053    -0.21570998
O       0.39116209     3.68222965     2.75424198     0.31636588     0.04845966     0.42566608
O       5.60685308     2.37151332     7.44193576    -0.31636588    -0.04845966    -0.42566608
O       3.17314069     2.37145692     2.34387928     0.45005532     0.46237759    -0.10318921
O       2.82487448     3.68228605     7.85229823    -0.45005532    -0.46237759     0.10318921
O       0.23970833     0.65535811     2.34384675     0.31636588     0.04845966    -0.42566608
O       5.75830683     5.39838486     7.85233077    -0.31636588    -0.04845966     0.42566608
O       2.67342072     0.65541451     7.44196824    -0.45005532    -0.46237759    -0.10318921
O       3.32459445     5.39832846     2.75420938     0.45005532     0.46237759     0.10318921
