# total energy = -19516.93976443 eV

CRYSTAL
PRIMVEC
        5.17600016     0.00000000     0.00000000
        0.00000000     5.50899976     0.00000000
        0.00000000     0.00000000     9.26300011
PRIMCOORD
23 1
Ti      1.83451100     3.18794600     3.42026201    -0.69886595     0.89904003     1.98047728
Ti      3.30623299     2.26435300     5.83718300     0.62217274     1.11194211    -2.28329266
Ti      4.30203599     2.03117798     1.51437601     1.72155192     0.21432004    -1.71712705
Ti      0.92494802     3.22670199     7.72519303    -0.40784550     1.60592654     2.86834998
Ti      2.03756102     0.21751699     1.36063700    -0.34178973     0.33116978    -2.23592213
Ti      3.30658902     5.29588701     7.82163801     0.79637405    -1.31627727     2.99053707
Ti      0.68119500     0.62960297     5.98501798    -0.57725658    -1.59800446    -2.83102629
Ti      4.46289100     4.95361898     3.31974702     0.80179419    -0.00722789     2.20286416
O       1.68199301     1.89384701     4.91043600    -0.31259278     0.83067849    -1.07466470
O       3.58358701     3.59811399     4.46581698    -1.31715761    -0.68893095     0.34836327
O       0.16898201     2.86422600     0.11057503     0.04302126    -0.70416217    -1.04845615
O       3.52772802     0.84536299     0.17580898    -0.08766077     0.59410657    -0.13379743
O       1.86250299     4.74220700     9.03991300     0.27176159    -0.50850140    -0.87917003
O       4.24666198     0.83778998     4.98610099    -0.58488171    -0.42657857    -1.49667827
O       0.81938800     4.72977599     4.43018002     1.22235123     0.20145732     0.30412588
O       0.05707499     3.37723599     2.56312600     1.15295790    -1.09698857    -0.06725108
O       4.94047898     2.01739100     6.90606998    -0.20291436     0.22702412     0.59718110
O       2.56834802     1.85514002     2.32773499     0.20748450    -0.11171293    -0.32948571
O       2.70301702     3.70616500     6.94021297    -0.82458806    -0.37288234     0.75900716
O       0.23559998     0.52026897     1.84389400    -0.23940193     0.19907622     1.06526808
O       5.15515899     4.78325698     7.17998202    -0.52178501    -0.15617658     0.33778934
O       2.31019102     0.97989402     7.03036700    -0.85825384     1.31492409    -0.21515436
O       2.86196202     4.42974900     2.23814301     0.13552470    -0.54222220     0.85806280
