# total energy = -19072.31913676 eV

CRYSTAL
PRIMVEC
        5.17600016     0.00000000     0.00000000
        0.00000000     5.50899976     0.00000000
        0.00000000     0.00000000     9.26300011
PRIMCOORD
22 1
Ti      2.06917502     3.45103700     3.30410501    -0.42086480    -1.14727576     1.82796838
Ti      3.44516398     2.07942799     5.87719198     0.19699517     0.43650277    -0.28517016
Ti      4.52157703     2.35269999     1.27819500    -1.38805452    -0.58418545    -1.25824179
Ti      0.54878099     3.03582601     7.94025997     0.73934259    -0.13857248    -0.22983228
Ti      1.93564201     0.42700000     1.34052700    -0.62775024     1.09043868    -2.27577527
Ti      3.20125402     5.23174798     8.05327398    -0.42939933     0.46428638     0.87609113
Ti      0.69749001     0.23715200     6.16547002    -0.77014904     0.40245210    -1.52838693
Ti      4.70901701     5.04741998     3.17073700     1.10422211    -0.51557245     2.58699045
O       3.67085501     3.16530902     4.33274901    -0.98178459     1.18824862     1.07416462
O       0.69850598     1.81098700     0.19972599     1.36435100     0.93724227    -1.71475727
O       4.24314602     3.77020698     8.73040501    -0.20208056    -0.77113557     0.65581950
O       3.53901002     0.73092602     0.38721201    -0.62778623     0.21170111    -0.95846339
O       1.67081800     4.73245400     8.98463202    -0.38703344    -0.31915090     1.11518093
O       4.45371200     0.88649498     4.96853500    -0.15489977    -1.33823938    -2.01523141
O       1.06955798     4.85178702     4.33155202    -0.58018970    -0.41456946    -0.60784347
O       0.46286399     3.54682602     2.18661199    -0.75375028     1.05969779     0.71691819
O       4.45694602     1.05486701     7.26946097     0.79725568     0.47909543     0.84019029
O       2.74520202     1.98127100     2.27673897    -0.15852965     0.21558888    -0.52104942
O       1.47527399     4.21257302     6.56658198     1.25510581    -2.66487460     1.78926349
O       0.18020602     0.88630400     2.16952100     0.23828222    -0.70204461     1.70011149
O       1.96983099     1.29157498     7.08672300     0.27396014     1.12076999    -0.69305885
O       2.87268601     4.80976399     2.52897200     1.51275719     0.98959689    -1.09488798
