# total energy = -19074.28674247 eV

CRYSTAL
PRIMVEC
        5.93400000     0.00000000     0.00000000
        0.00000000     9.29699974     0.00000000
        0.00000000     0.00000000     4.64899994
PRIMCOORD
22 1
Ti      4.40546400     6.89267899     2.35464498    -0.07501093     0.37247020    -0.42468726
Ti      4.32835002     2.40326901     2.24726200     1.72190056    -1.86466755     0.38920191
Ti      1.50335198     7.06612700     2.46463600     0.03466054     0.35004323     0.77721161
Ti      1.61838802     2.47481198     2.20826402    -1.80505599    -0.47559461     0.38950505
Ti      3.06209897     4.55895901     4.58442497    -2.08738199     2.44759033     1.10509346
Ti      2.98571801     9.26582099     4.61585101     0.95325485     0.28851568     0.27346006
Ti      5.78829099     4.57032700     4.54311401     1.98969134     0.63359693     0.82881521
Ti      0.01842399     9.16010598     0.17521900    -0.88598757    -0.29287524     1.23520393
O       4.45016001     5.65482402     0.83649202     0.16633552    -0.98055920     0.65561792
O       4.42915500     0.92852599     0.93599602     0.88645525    -0.25752127    -0.15576957
O       1.56877601     0.79159000     1.00895400    -1.06164951     1.30685443     0.21495279
O       4.49510499     8.18705200     3.80530598     0.21537471     2.51976611     0.59774494
O       4.36895400     3.94891300     3.61982200     1.12599139    -2.76261538    -2.62961396
O       1.45720899     8.44955799     3.77506298    -0.29084767    -0.33735020    -1.02797165
O       1.57532400     3.83352097     3.71871100    -1.35287925    -0.08757309    -0.52417305
O       3.00173001     6.15426601     3.36734201    -1.63583517    -0.55353995    -0.52337781
O       2.95497699     1.51218601     3.30384000    -0.00238701    -0.19370313    -0.16208755
O       5.87693702     6.15250703     3.32675301     1.83999498    -1.37475754    -0.18630040
O       3.00411501     7.89086101     1.39494801    -0.96979785    -0.73427185     0.64721273
O       3.04413399     3.12244899     1.23151601    -0.53904355     1.53759508    -0.73245100
O       5.93088299     7.82163902     1.49635298     0.75947382     0.55343916    -0.85032764
O       5.83032598     3.23533901     1.36364500     1.01274377    -0.09484186     0.10274029
