# total energy = -19515.34865614 eV

CRYSTAL
PRIMVEC
        5.93400000     0.00000000     0.00000000
        0.00000000     9.29699974     0.00000000
        0.00000000     0.00000000     4.64899994
PRIMCOORD
23 1
Ti      4.70262200     6.83154902     2.37961003    -0.58427878     1.23191703    -0.68807323
Ti      4.36481102     2.22917599     2.34264202    -0.00492495     0.33006806     0.63472822
Ti      1.43296701     7.34902198     2.26359098     0.85092773    -0.37557815    -0.80026361
Ti      1.40530501     2.32480700     2.26227402     0.37593425    -0.76000295     0.50836668
Ti      3.08543601     4.43813202     4.59885601    -1.46733452     0.50436758     1.13454031
Ti      2.91602600     9.19996001     4.58921302    -0.81061719    -0.59169590     0.43260087
Ti      0.05257498     4.67397701     0.03119500     1.90822745     1.57239420    -0.00821468
Ti      5.77721299     0.33337701     0.10117700     1.14827155    -1.61808144    -0.53482745
O       4.35612902     5.62176500     0.80389200     1.06127799    -0.70573568     0.12994592
O       4.23274298     0.95060898     1.05180202     0.36095679    -1.13651724    -2.42824920
O       1.52773700     5.74614901     0.86009798    -0.49382425    -1.67152621    -0.92582477
O       1.61565800     0.63286302     1.24564202    -1.04991371     0.93288502    -1.82638355
O       4.51660101     8.52913498     3.80153501    -0.22535522    -1.15908099     0.26041351
O       4.56877397     3.76521800     3.56600902    -0.89950283     0.80008723     1.14708627
O       1.12975702     8.36177998     3.89890903     2.58336134     0.43408311    -0.70255369
O       1.59939903     3.64403001     3.75202699    -0.93499204     0.12248380    -0.50361348
O       3.05597200     1.29852599     3.22764499    -1.33754672     0.43961252     1.33987743
O       0.29466902     5.88160600     3.13993899    -1.03514220     0.74146580     0.02356083
O       0.00321697     1.29461399     2.99279602    -0.75929821    -0.26475045     3.24303646
O       3.13129700     7.80975402     1.55046500    -0.75549452    -0.40462031     0.65178389
O       2.79405101     3.24678998     1.29223502     1.34936455    -0.54809589     0.89294420
O       5.82760003     7.93609000     1.39105199    -0.56355003    -0.19281481     0.82289421
O       5.83563601     3.01791098     1.44388600     1.28345275     2.31913565    -2.80377464
