# total energy = -19960.41449979 eV

CRYSTAL
PRIMVEC
        7.60600008     0.00000000     0.00000000
        0.00000000     7.60600008     0.00000000
       -1.89786986    -1.89786986     4.85670466
PRIMCOORD
24 1
Ti      3.76859701     6.55288698     1.30377199    -0.82468216    -0.68243685    -1.55567817
Ti      3.77597898     2.86410598     1.21223401    -0.70301571     0.41725806    -0.73905771
Ti      0.00520800     6.59733300     1.27555202     0.52315464     0.18006651    -0.56038705
Ti     -0.06771500     2.85752799     1.15572301     0.88505683     0.22083702     0.35105907
Ti      5.73300123     2.86702921     3.57506382     0.41635637     1.27953465     0.77156392
Ti      5.76889220    -0.93875478     3.66359782     1.66586052    -1.33817562     0.06827156
Ti      1.88550125     2.89636923     3.53132579    -0.90796716     0.06049037     0.93030003
Ti      2.04918821    -0.97594880     3.73978479    -2.62966898     0.21654147    -0.12380715
O       3.51287099     4.68256698     0.79000898     1.08581069     2.08242155    -0.18537326
O       3.55356298     1.00107202     0.82110698     1.13914722    -0.93831159     0.31542691
O       0.00922102     4.80533002     0.67181698    -0.74281358    -1.75518942     0.32757820
O       0.02288501     0.99190402     0.75957298    -0.53718104     0.04156241     0.18354444
O      -1.60479579     4.67735421     4.12878479    -0.94465013     0.89420430    -0.75311908
O       5.91225722     0.87066925     3.91036682    -1.26347219     1.44518677     0.55062560
O       1.76427420     4.71067524     4.11230483     0.64830262     0.13517220     0.82681463
O       1.82991620     0.92868221     4.06891881     1.03157762     0.19779530    -0.62365704
O       3.74736023     2.99040424     3.13796283     0.60286941    -0.80363253     0.73278216
O       3.84362122     6.26738522     3.34530284     0.08330069     1.02541571    -1.01252857
O      -0.03804176     2.82172624     3.17525781    -0.37029453    -0.46390226    -0.84515509
O       0.07369825    -1.02710579     3.30577780    -0.89374690    -0.03002844    -0.99957097
O       5.72737798     6.63287799     1.55212699    -1.48205975     0.21943294     0.80712023
O       5.65065199     3.07300098     1.52671701     0.31619618    -0.63513754     0.14747159
O       1.82951699     6.75461199     1.62275702     2.38851021    -0.28691285     1.31760576
O       1.75675999     3.21467998     1.64942998     0.51340887    -1.48219216     0.06817000
