# total energy = -19075.04638424 eV

CRYSTAL
PRIMVEC
        7.60600008     0.00000000     0.00000000
        0.00000000     7.60600008     0.00000000
       -1.89786986    -1.89786986     4.85670466
PRIMCOORD
22 1
Ti      3.94176900     6.61597898     1.19756003    -0.19218386     0.32773067    -0.33216737
Ti      3.62945001     2.77883198     1.14629900     1.08280584     0.29307553     0.47338372
Ti     -0.00199902     6.72652099     1.01194502     0.19759526    -0.19965163     1.71813261
Ti     -0.09609298     2.91026601     1.10338399    -1.30233725    -0.48615979     0.20784137
Ti      5.59360822     2.88703724     3.52861381    -0.11041915    -0.24787346    -0.32958212
Ti     -1.20487077    -0.85291376     3.82006479    -3.59153343    -0.18239824    -0.66938541
Ti      1.81828420     2.77830624     3.63679282     0.32741571    -0.38968605     0.34028254
Ti      1.55423920    -1.02152879     3.83375783     1.88136738     1.22453204    -1.51241086
O       3.69419400     4.69144901     0.85111101     0.18519817     1.23280663    -0.54747214
O       4.07956098     0.91819503     0.92488499    -1.35202924    -0.80297793    -0.05670287
O      -0.03136402     4.81523198     0.66231899     0.00069034    -0.68563453     0.26296790
O       7.23080399     0.96854301     0.69612399     1.98745165     0.82622739     0.55591565
O       5.41317523     4.89512420     4.06184281     1.45417226    -0.62820815    -1.86746311
O       5.65133124     0.93887421     3.97001082     0.89956094    -0.10483677     0.32826495
O       2.23616224     4.85425923     4.13553381    -1.01086069    -1.62848592     0.16330368
O       2.11569425     0.92061220     4.05885782    -1.40136513    -0.70566729    -0.08053418
O       3.72208122     2.75200021     3.12976582     0.10553045     0.47433374     0.45908427
O      -0.03757476     2.73833124     3.20024683    -0.15984580     0.84954576     0.19077875
O       5.87555200     6.57826299     1.98358002    -0.31155740    -0.01227497    -0.12739744
O       5.62010000     2.79433402     1.56080899     0.83740013     1.21253090     0.71584527
O       1.90452400     6.74481898     1.84154699     0.19475754    -0.33672362     0.37913167
O       1.76702799     2.78308201     1.60733399     0.27818704    -0.03020430    -0.27181687
