# total energy = -19961.34868906 eV

CRYSTAL
PRIMVEC
        7.60600008     0.00000000     0.00000000
        0.00000000     7.60600008     0.00000000
       -1.89786986    -1.89786986     4.85670466
PRIMCOORD
24 1
Ti      3.87750899     6.53090601     1.23170598    -1.17484623     1.53322780    -0.26739226
Ti      3.79769700     2.79053002     1.23975699    -0.03404836    -1.57138993    -1.42749192
Ti     -0.00806900     6.70069502     1.13711200     1.13854147     0.54528850     1.85139551
Ti     -0.01618102     2.95125301     1.21207298    -0.07448026    -0.73453976     0.09609913
Ti      5.64066721     2.88491720     3.61272981     1.24413954    -0.41617537     0.13505547
Ti      5.70120223    -0.90306976     3.64931982     0.54339900     0.16569789    -0.06476868
Ti      1.91402025     2.79847620     3.61045482    -1.21403500    -0.40237908     0.42030096
Ti      1.93742422    -0.99859377     3.62983181    -0.63805548     0.61561077     0.06379861
O       3.82313000     4.58380398     0.85536401     0.22445302     2.23364233    -0.60351321
O       3.81982100     0.84871802     0.80764799     0.12235473     1.27471434     0.17458954
O      -0.06750899     4.80561397     0.80795502     0.19220186    -1.12163671    -0.64936963
O      -0.07865400     0.94038200     0.83978498     0.46411180     0.94058882    -0.69257266
O       5.55608421     4.81653122     4.09355481     0.29675401    -0.69890863    -1.10086811
O       5.62536721     0.96401722     4.05387583     0.53490664     0.81226990     0.45283057
O       1.91162022     4.80747123     4.10252384     0.52184389    -2.72527060    -0.11260588
O       1.84053425     0.91906923     4.05170181     0.24208976     0.98709958     0.20111665
O       3.83455721     2.89051124     3.18618580    -0.84632803    -0.09050801     0.45593364
O       3.79411923    -0.69501177     3.19946582     1.34008723    -1.10042151    -0.18367814
O       0.04198625     2.91551322     3.28668381    -1.01311787     0.16753443    -0.40758042
O       0.08059221    -0.96318075     3.26395184    -1.97541014     0.10185275    -0.37119493
O       5.74806299     6.58468900     1.59328798    -0.49448400    -0.10532759     0.97685861
O       5.70629498     2.69973300     1.59377900     0.26797178     0.64199596     0.96233625
O       1.94274097     6.69135901     1.63354001    -0.33551366    -0.73655139    -0.42263038
O       1.84093299     2.87720100     1.61003602     0.66746454    -0.31641498     0.51335128
