# total energy = -19958.93781719 eV

CRYSTAL
PRIMVEC
        7.60600008     0.00000000     0.00000000
        0.00000000     7.60600008     0.00000000
       -1.89786986    -1.89786986     4.85670466
PRIMCOORD
24 1
Ti      3.80095901     6.67712901     1.20042298     0.60137791     1.52136833     2.03027596
Ti      3.63990301     2.85734601     1.20679999     0.61826878    -1.03365944    -1.08859340
Ti      0.20151498     6.71106700     1.20629701    -1.32964649     1.27186453     1.62519465
Ti     -0.11200698     2.76047900     1.19601700    -0.43984444     0.13246868     1.41818169
Ti      5.70445921     2.85209922     3.73693983     1.55476954    -1.39719788    -1.36921759
Ti      5.74765923    -1.03638475     3.54421279     0.05496815     2.61870425     0.14213603
Ti      1.96853524     2.78390822     3.71734582    -1.87344581    -0.35194507    -2.10781789
Ti      1.93323325    -1.04754875     3.72685281    -0.35015995     0.51482066    -0.79462595
O       3.97666802     4.94284498     0.72153800    -0.72887356    -2.52881665    -0.09357713
O       3.90109500     0.95190399     0.75587297    -0.04266105    -0.67396661     0.25523736
O       0.02462600     4.70060102     0.92507798     0.24539209     3.25516076    -0.64939148
O      -0.23598199     0.97069698     0.69545601     0.79575492    -2.38039684    -0.20080477
O       5.81656922     4.83958223     3.90619680     0.68907930    -2.42021116     1.52176171
O       5.78923520     1.03906223     4.20236080    -1.21565891    -0.11831655    -1.75105560
O       1.52751622     4.73505221     3.69477684     0.73382808     0.12055779     1.54267275
O       1.85323525     0.86488222     4.05795579     0.71640088     3.02259874     1.03536306
O       3.74347824     3.04500221     3.07899481     0.28418594    -0.10743101     1.67779533
O       3.77911123    -1.08658177     3.27691181     0.58740576     0.01873384    -0.78493186
O      -0.03442880     2.63983622     3.24316983    -0.43343956     0.87732809     0.30804527
O      -0.01261776    -0.46267179     3.19434079     0.00441510    -2.32283882    -1.17386047
O       5.68341198     6.70071100     1.64131299     0.08637727    -0.15669337    -0.51470625
O       5.64934598     2.75512500     1.56909500    -0.55915215     0.59212219     0.91824232
O       2.02288900    -0.52227397     1.82287402    -1.55246198    -1.21790631    -2.32520860
O       1.81589502     2.55610397     1.55941201     1.55312018     0.76365160     0.37888459
