# total energy = -19518.03145312 eV

CRYSTAL
PRIMVEC
        5.17600016     0.00000000     0.00000000
        0.00000000     5.50899976     0.00000000
        0.00000000     0.00000000     9.26300011
PRIMCOORD
23 1
Ti      1.80777802     3.25246800     3.44198400    -0.55638333    -0.07306589     2.06385613
Ti      3.41937702     2.26324099     5.77047402    -0.15728010    -0.09252530    -1.41105665
Ti      4.33526398     1.97454802     1.55470001     1.58521887     0.60956559    -0.97731241
Ti      1.05583699     3.33009799     7.86508902    -1.67403612    -0.06453548    -0.19581066
Ti      1.89294799     0.37443101     1.21226099     0.62131117    -0.17801142     0.67690975
Ti      3.30244498     5.32657199     7.91716297    -0.11694204    -1.65142840    -0.72723834
Ti      0.66172800     0.48915901     5.84437198     0.05842911     0.25541528    -1.85474000
Ti      4.36996801     4.87545002     3.39220699     0.59233019     0.82837606     1.93938615
O       1.56431002     2.00500497     4.85172600     0.68617318     0.51591030    -0.81685135
O       3.49679798     3.72910600     4.55634598    -0.54753539    -0.99171497     0.21091281
O       0.46535800     2.51140098     0.12228699    -0.14507866    -0.75233643     0.25515277
O       3.42785401     0.86690299     0.15652502     0.84779150     1.24859629     0.22642351
O       1.65627801     4.75545802     9.01663402     0.38570393     0.02520479    -0.23308576
O       4.17286700     0.81677598     4.72047999     0.56484458    -0.22813304    -0.33693651
O       0.97143301     4.73181899     4.45806200    -0.13441501     0.35915393     0.27172380
O       0.02173601     3.31149302     2.70185299     0.54719652    -0.85330035    -1.28765316
O       5.03533098     1.98422799     6.73966898    -0.17106790     0.86561568     1.20190401
O       2.66972701     1.88864202     2.41674800    -0.06068706     0.15128659    -0.96272191
O       2.75506001     3.52377898     7.02028998    -0.87097797     0.19114359     1.77296346
O       0.23893702     0.62129801     2.14343399    -0.47404064    -0.40819209    -0.11088529
O       5.04358900     4.74377199     7.14670498     0.04277315     0.13251831     0.55091511
O       2.41068199     0.83224500     6.74554401    -0.33189072    -0.17445070     0.73087697
O       2.82448902     4.62166101     2.30958897    -0.69143777     0.28490688    -0.98673242
