# total energy = -19908.46719102 eV

CRYSTAL
PRIMVEC
        7.49966531     0.00000000     0.00000000
        0.00003168     5.89967401     0.00000000
        0.00000000     0.00000000    11.94062250
PRIMCOORD
24 1
Ti      2.71828676     3.49614140     4.42988578     0.51072232    -0.82808116     1.24455323
Ti      4.78141030     2.40353281     7.51073678    -0.51072232     0.82808116    -1.24455323
Ti      6.46798989     2.40353486     1.54037779     0.51030246     0.82787418    -1.24528445
Ti      1.03170717     3.49613962    10.40024491    -0.51030246    -0.82787418     1.24528445
Ti      2.71827105     0.54630453     1.54042567     0.51072232    -0.82808116    -1.24455323
Ti      4.78142601     5.35336988    10.40019704    -0.51072232     0.82808116     1.24455323
Ti      1.03169146     0.54630228     7.51068891    -0.51030246    -0.82787418    -1.24528445
Ti      6.46800560     5.35337213     4.42993366     0.51030246     0.82787418     1.24528445
O       2.37370262     2.07737555     6.09320827     0.78669795     1.47684555    -1.27427288
O       5.12599451     3.82229866     5.84741430    -0.78669795    -1.47684555     1.27427288
O       1.37619627     2.07739935     0.12293542    -0.78648224     1.47730937    -1.27514140
O       6.12350093     3.82227493    11.81768681     0.78648224    -1.47730937     1.27514140
O       5.12597880     0.87246159     0.12289668    -0.78669795    -1.47684555    -1.27427288
O       2.37371833     5.02721262    11.81772555     0.78669795     1.47684555     1.27427288
O       6.12348522     0.87243786     6.09324701     0.78648224    -1.47730937    -1.27514140
O       1.37621184     5.02723642     5.84737556    -0.78648224     1.47730937     1.27514140
O       0.27249947     3.58851616     3.22546003    -1.41091190     0.30484039     0.01072999
O       7.22719766     2.31115805     8.71516254     1.41091190    -0.30484039    -0.01072999
O       4.02234021     2.31110303     2.74488922    -1.41097952    -0.30453880    -0.01104418
O       3.47735692     3.58857125     9.19573314     1.41097952     0.30453880     0.01104418
O       0.27248376     0.63867915     2.74485109    -1.41091190     0.30484039    -0.01072999
O       7.22721337     5.26099512     9.19577128     1.41091190    -0.30484039     0.01072999
O       3.47734121     0.63873418     8.71520061     1.41097952     0.30453880    -0.01104418
O       4.02235592     5.26094003     3.22542189    -1.41097952    -0.30453880     0.01104418
