# total energy = -19073.77870162 eV

CRYSTAL
PRIMVEC
        5.17600016     0.00000000     0.00000000
        0.00000000     5.50899976     0.00000000
        0.00000000     0.00000000     9.26300011
PRIMCOORD
22 1
Ti      1.71588798     3.39241999     3.28438199     0.60614345     1.01608055    -0.74682167
Ti      3.74766001     2.14838698     5.86516902    -1.16131759     0.76851305    -0.91226759
Ti      4.22516400     2.23090000     1.23538101     0.55233024    -0.69069061    -0.89160569
Ti      0.87732000     3.10639201     8.06531001    -0.94324734     1.53111076     0.38709695
Ti      1.69126901     0.51510399     1.30879203    -1.01994260    -0.49055175    -1.36788472
Ti      3.28211299     5.11147398     8.09096399     0.73974651    -0.49605803     2.16119864
Ti      1.47902798     0.20230499     5.96931899    -1.78737142     0.11781956    -1.19746320
Ti      4.23583899     4.92830599     3.49920298    -0.01667181     0.18978091    -0.27894294
O       3.18710699     3.64255900     4.57447401     0.85142061    -1.96173933     0.50886624
O       0.99633498     1.99688200     0.22051001    -0.71004408    -0.23632483    -0.21969056
O       4.29096603     3.49678602     8.83478898    -0.18880440     0.21426862    -0.40774137
O       3.40903102     0.84945898     0.19259200     0.74504427     0.48611840    -0.19829743
O       1.69612802     4.78702599     9.05196798    -1.33192372    -0.91495722     1.10607176
O       3.51574199     0.65103100     4.84788000     0.02130005     0.53854270    -0.83746003
O       0.82661900     4.85160900     4.36153901    -0.13773430     0.02239277     0.34343729
O       5.13374700     3.38972600     2.45644101     0.11593751    -0.23898156     0.59483471
O       0.30918700     2.09090298     6.38882600     0.85292214    -0.54988384     0.01451851
O       2.54683501     1.90609301     2.23964899     0.50044999     1.57991905     1.46325855
O       2.05203301     4.28522302     6.90226901     0.34730449    -2.42533331    -1.57300638
O       5.02234402     0.60244401     2.03910299     1.09826872     0.28382238     0.83204734
O       2.63160799     1.15881901     7.10608401     0.97787086     2.19436794    -0.01911564
O       2.68940902     4.70201398     2.23855000    -0.11168105    -0.93821620     1.23896725
