# total energy = -19960.19727299 eV

CRYSTAL
PRIMVEC
        5.93400000     0.00000000     0.00000000
        0.00000000     9.29699974     0.00000000
        0.00000000     0.00000000     4.64899994
PRIMCOORD
24 1
Ti      4.43558800     6.89678202     2.41202398     0.65256834    -0.26046956    -1.23672499
Ti      4.44016099     2.37166602     2.30868699    -0.11002346    -0.07922806     0.32663667
Ti      1.51337401     6.99815302     2.33118502    -0.43759086    -0.04797140    -1.05366315
Ti      1.45908598     2.41684601     2.32424200     0.26961266    -0.30595059    -0.37348913
Ti      2.94768900     4.63773101     4.60445301     1.39675951     2.05418646     0.90047137
Ti      3.00693801     0.02542803     4.63500702    -0.09273381    -1.31785232     0.47917076
Ti      0.03192098     4.65780101     0.00597002    -1.09782726     2.14886326     0.34242633
Ti      0.00082901     9.27739902     4.62523301     0.21680938    -1.36841669     0.48115540
O       4.35653701     5.54356901     0.92808302     0.72536478    -0.14529027    -0.15793881
O       4.51166400     0.91542002     0.84662798    -0.86332971     0.30638408     0.35788021
O       1.54522101     5.57803998     0.92177602    -0.66297205    -0.14317965    -0.10494167
O       1.46132398     0.89889800     0.85053702     0.43295054     0.37857374     0.52898616
O       4.45197699     8.26124402     3.73266302    -0.33922813     1.51935207     1.21187835
O       4.46422898     3.75284499     3.83568298    -0.01500034    -1.27042368    -1.75817653
O       1.49411403     8.23868800     3.77320398     0.00208851     1.54569303     0.53602636
O       1.49151402     3.85122100     3.77147298    -0.42037501    -2.74988944    -1.93362507
O       2.87482902     6.09057498     3.21450901     0.38304926    -0.78551782     0.45355099
O       3.00893100     1.42503200     3.20028599    -0.68486217     0.49372707    -0.40153447
O       0.03593500     5.88857702     3.24038398    -0.25676408     1.37705148    -0.75638463
O       5.84479802     1.32920800     3.26510301     0.86252238     1.72548700    -1.66830410
O       3.06860500     7.80871699     1.36508601    -1.24372894     0.97354703     0.21946071
O       2.98226698     3.24177502     1.28060699    -0.71206214    -1.68634502     2.31153984
O       5.77798400     7.89309102     1.49548502     1.38321442    -0.06524537    -0.40771798
O       5.92249400     3.38056398     1.43865699     0.61155794    -2.29708484     1.70331817
