# total energy = -19913.02058318 eV

CRYSTAL
PRIMVEC
        4.77463712     0.00000000     0.00000000
        2.17657918     4.59192193     0.00000000
        0.00000000     0.00000000     8.78168604
PRIMCOORD
24 1
Ti      3.02041507     2.72116866     3.25794287     6.18166809    -4.86393455     1.32260630
Ti      3.93080107     1.87075321     5.52374322    -6.18166809     4.86393455    -1.32260630
Ti      5.00455711     1.87075476     1.13286510   -12.89060200     3.90115813     3.16370068
Ti      1.94665912     2.72116728     7.64882113    12.89060200    -3.90115813    -3.16370068
Ti      1.93212559     0.42520776     1.13290030     6.18169431    -4.86280429    -1.32340462
Ti      5.01909058     4.16671424     7.64878593    -6.18169431     4.86280429     1.32340462
Ti      0.85836953     0.42520607     5.52370803    12.88976485    -3.90003584     3.16595091
Ti      6.09284669     4.16671592     3.25797811   -12.88976485     3.90003584    -3.16595091
O       2.27761328     1.61689375     4.48122717    -2.71078526    -0.77045732    -1.45519556
O       4.67360287     2.97502811     4.30045896     2.71078526     0.77045732     1.45519556
O       1.64256298     1.61691230     0.09041239     2.73813409     0.43990100    -3.41945946
O       5.30865323     2.97500965     8.69127350    -2.73813409    -0.43990100     3.41945946
O       3.58531337     0.67906713     0.09038387     2.70920763     0.76938877    -1.45585120
O       3.36590278     3.91285478     8.69130198    -2.70920763    -0.76938877     1.45585120
O       4.22036373     0.67904862     4.48125565    -2.74027351    -0.43935027    -3.42089362
O       2.73085238     3.91287330     4.30043044     2.74027351     0.43935027     3.42089362
O       1.49739241     2.79306725     2.37215249    -0.08049304    -5.92757204    -5.24489659
O       5.45382368     1.79885463     6.40953364     0.08049304     5.92757204     5.24489659
O       3.41344162     1.79881190     2.01871849     2.97713288    -4.62486840    -6.09253973
O       3.53777452     2.79310997     6.76296746    -2.97713288     4.62486840     6.09253973
O       0.40910291     0.49710622     2.01869043    -0.08111345    -5.92870049     5.24233165
O       6.54211319     4.09481566     6.76299551     0.08111345     5.92870049    -5.24233165
O       2.44948502     0.49714894     6.40956160    -2.97845520     4.62619278    -6.09122898
O       4.50173113     4.09477293     2.37212444     2.97845520    -4.62619278     6.09122898
