# total energy = -4987.14573000 eV

CRYSTAL
PRIMVEC
        3.02695889     0.00000000     0.00000000
        1.61065046     4.46092696     0.00000000
       -0.00001046    -0.00006284     4.81938711
PRIMCOORD
6 1
Ti      2.31879944     2.23043201     2.40969356     0.00000000     0.00000000     0.00000000
Ti      0.00000000     0.00000000     0.00000000     0.00000000     0.00000000     0.00000000
O       1.82736943     0.86935671     0.93922758    -2.15946315     1.14027722     1.10163378
O       2.81022945     3.59150731     3.88015959     2.15946315    -1.14027722    -1.10163378
O       0.49142561     1.36104990     3.34892209     2.15924023    -1.13994580     1.10112393
O       1.11921448     3.09981410     1.47046507    -2.15924023     1.13994580    -1.10112393
