# total energy = -19072.18164900 eV

CRYSTAL
PRIMVEC
        7.60600008     0.00000000     0.00000000
        0.00000000     7.60600008     0.00000000
       -1.89786986    -1.89786986     4.85670466
PRIMCOORD
22 1
Ti      3.84336801     6.55503798     1.53637597    -0.08482021     0.77510022    -1.52326195
Ti      3.71555900     2.83172700     1.15877700     1.44530684    -0.52120651     0.33552472
Ti      0.08687699     6.65372700     1.31427298     0.92153462     1.37815449    -2.70423974
Ti     -0.05727301     2.95475299     0.97641299    -0.68159610    -1.45253807     0.84313343
Ti      5.62459620     2.83772925     3.42608682    -0.94939973     2.12197208    -1.06076814
Ti      6.00332323    -0.81797076     3.73578580    -0.00029671    -4.88537447    -0.09428316
Ti      1.92540021     2.92506223     3.73151079     0.88757471    -0.61728842     1.66171307
Ti      1.43247123    -0.95518176     3.99408484     3.30528984     0.84050191    -0.97405534
O       3.56477000     4.70210299     0.96927698     0.11295143     2.25510616    -0.28119009
O       3.91699101     1.05631098     1.10810902    -1.02898646    -2.00402730     0.56813096
O       0.25901401     4.75969901     0.41689901     0.40808102    -0.83823933     1.57651414
O       0.18885098     0.88598702     0.89408301    -0.57939420    -0.52952995     1.37656554
O       5.68952821     4.86941423     3.95344582    -0.12728071    -0.96062903    -0.26257864
O       5.12023022     0.63060121     4.05094483    -1.55156723     3.85334896    -1.49830964
O       1.90053321     4.92650420     4.54810082    -0.05899038    -2.47609513    -1.25298645
O       2.20270824     0.95325424     4.19732679    -0.54770328     1.07430217    -1.51560803
O       3.70438723     3.08538923     3.11890880     0.35107990     0.01863665     1.06093680
O       0.37772524     3.10541425     2.81024982    -0.70638797     0.00174707     0.80751541
O       5.90943602     6.70413002     1.80239200    -1.50014592    -0.58120040    -0.30525459
O       5.76895798     2.68556100     1.43234502    -0.05585749     1.13260993     1.92890196
O       1.99908200    -0.77856499     2.14917402    -0.05476092    -1.19726960     0.14160253
O      -0.06878278    -0.18238978     4.30958179     0.49536923     2.61191885     1.17199719
