# total energy = -4989.29450198 eV

CRYSTAL
PRIMVEC
        3.99411092     0.00000000     0.00000000
        0.79090475     3.91502129     0.00000000
       -2.39254422    -1.95754041     5.12331067
PRIMCOORD
6 1
Ti      0.59304088     2.93641569     1.28082781    -0.00009076     0.00009076     0.00000000
Ti      1.79943057    -0.97893481     3.84248303     0.00009076    -0.00009076     0.00000000
O       0.19776804     0.97874960     0.83454550    -0.00043092    -0.00098653    -0.88039027
O       2.19470329     0.97873118     4.28876539     0.00043092     0.00098653     0.88039027
O      -0.19774182    -0.97872815     3.39620073    -0.00098653    -0.00043092    -0.88039027
O       2.59021303     2.93620883     1.72711011     0.00098653     0.00043092     0.88039027
