# total energy = -19954.25335862 eV

CRYSTAL
PRIMVEC
        5.45075610     0.00000000     0.00000000
        1.42802864     5.62274557     0.00000000
        0.00000000     0.00000000     9.83397008
PRIMCOORD
24 1
Ti      2.82188543     3.33203399     3.64833294     0.72504545    -1.99535883     0.95256271
Ti      4.05689946     2.29071196     6.18563769    -0.72504545     1.99535883    -0.95256271
Ti      5.28270584     2.29071390     1.26861311    -1.49476460    -0.50366233     0.51248867
Ti      1.59607908     3.33203226     8.56535763     1.49476460     0.50366233    -0.51248867
Ti      2.10787123     0.52066124     1.26865254     0.72504545    -1.99535883    -0.95256271
Ti      4.77091369     5.10208492     8.56531820    -0.72504545     1.99535883     0.95256271
Ti      0.88206476     0.52065908     6.18559826     1.49476460     0.50366233     0.51248867
Ti      5.99672015     5.10208703     3.64837237    -1.49476460    -0.50366233    -0.51248867
O       2.22803189     1.97986442     5.01819989     1.02355115     1.43768197    -0.70543281
O       4.65075295     3.64288153     4.81577074    -1.02355115    -1.43768197     0.70543281
O       1.50305016     1.97988712     0.10124626    -0.10164063    -0.30684045     0.71231257
O       5.37573480     3.64285893     9.73272409     0.10164063     0.30684045    -0.71231257
O       3.93673873     0.83150862     0.10121435    -1.02355115    -1.43768197    -0.70543281
O       2.94204616     4.79123733     9.73275600     1.02355115     1.43768197     0.70543281
O       4.66172057     0.83148597     5.01823180     0.10164063     0.30684045     0.71231257
O       2.21706427     4.79126004     4.81573883    -0.10164063    -0.30684045    -0.71231257
O       1.06664654     3.42007272     2.65640081     0.15702530     0.76403984     0.68165524
O       5.81213829     2.20267323     7.17756982    -0.15702530    -0.76403984    -0.68165524
O       3.48283488     2.20262079     2.26061581     1.00043538     0.57368558    -0.13486855
O       3.39595001     3.42012521     7.57335466    -1.00043538    -0.57368558     0.13486855
O       0.35263232     0.60869981     2.26058440     0.15702530     0.76403984    -0.68165524
O       6.52615258     5.01404619     7.57338607    -0.15702530    -0.76403984     0.68165524
O       2.68193578     0.60875224     7.17760118    -1.00043538    -0.57368558    -0.13486855
O       4.19684911     5.01399370     2.65636940     1.00043538     0.57368558     0.13486855
