# total energy = -19960.33442631 eV

CRYSTAL
PRIMVEC
        5.93400000     0.00000000     0.00000000
        0.00000000     9.29699974     0.00000000
        0.00000000     0.00000000     4.64899994
PRIMCOORD
24 1
Ti      4.46933400     6.82201700     2.21191201    -0.89059036     1.49235779     0.08582628
Ti      4.41498501     2.29647199     2.29306600    -0.43723862     1.81617164     0.20950102
Ti      1.43576498     7.00002397     2.38679800     0.67921629     1.18918476    -0.75813710
Ti      1.45419702     2.23651002     2.36135500     0.16050555     0.63763613    -0.27193694
Ti      2.93343201     4.69923501     4.57738999     0.42594016    -1.05616792    -0.28325366
Ti      2.98782598     0.10748299     0.05332101     0.33131505    -1.77481697    -0.12151912
Ti      0.07160800     4.60412799     0.00293699    -0.82758622    -0.83849902    -0.51729535
Ti      5.92244002     0.09153502     4.60546702    -0.37348270    -1.91978431     0.07181762
O       4.31670600     5.50465299     0.91176298     1.51021719     0.54111252     0.06588737
O       4.47750598     0.91168599     1.00371499     0.17009011     0.10557802    -0.03984800
O       1.48582902     5.58773499     0.79682500    -0.19681751    -0.12998294     0.61176414
O       1.43643101     0.86957099     1.00612402     0.72861363     0.75510834     0.62463766
O       4.45397998     8.37553102     3.84673998    -0.09042933     0.57083988    -0.19672623
O       4.50297401     3.71482398     3.73596202    -0.11572900     0.51852151     0.32337008
O       1.58479400     8.59760898     3.78916502    -0.95091026    -1.64890743    -1.23978358
O       1.43767500     3.74713300     3.63728602     0.16142960     0.26413313     1.33305501
O       2.85718800     5.98836000     3.10884099     1.03054404    -0.14282175     0.86330940
O       3.04902703     1.41731998     3.28118201    -0.27657316     0.60749328    -0.19310895
O       5.89223897     6.08565802     3.32724202    -0.01083823     0.39727235    -0.94078422
O       5.88839799     1.46002501     3.35744899     0.66516546     0.46005332    -0.92149400
O       2.93225999     7.78907298     1.42848102     0.38625800     0.64416340     0.29445441
O       3.05264602     3.35734501     1.45420099    -0.45800877    -1.62044017     0.16629284
O       0.07410302     7.85778198     1.33035499    -0.77324954    -0.99393846     1.36794283
O       0.15601802     3.21433099     1.46063901    -0.84784061     0.12573342    -0.53397153
