# total energy = -4988.06377733 eV

CRYSTAL
PRIMVEC
        3.22301297     0.00000000     0.00000000
        0.50373813     5.02479124     0.00000000
       -0.00000335    -0.00006553     5.05631813
PRIMCOORD
6 1
Ti      1.86337393     2.51236285     2.52815906     0.00000000     0.00000000     0.00000000
Ti      0.00000000     0.00000000     0.00000000     0.00000000     0.00000000     0.00000000
O       1.70967698     0.97924508     0.98540192     0.30288146    -0.58652850    -0.63354242
O       2.01707095     4.04548062     4.07091615    -0.30288146     0.58652850     0.63354242
O       0.15369558     1.53309121     3.51356201    -0.30284238     0.58710545    -0.63365349
O       0.35003942     3.49163437     1.54275606     0.30284238    -0.58710545     0.63365349
