# total energy = -4978.44672409 eV

CRYSTAL
PRIMVEC
        3.70851584     0.00000000     0.00000000
        0.00000000     5.81068834     0.00000000
        0.00000000    -0.00007541     5.81068834
PRIMCOORD
6 1
Ti      1.85425785     2.90530640     2.90534410     0.00000000     0.00000000     0.00000000
Ti      0.00000000     0.00000000     0.00000000     0.00000000     0.00000000     0.00000000
O       1.85425785     1.13240286     1.13241756     0.00000000    -0.96707145    -0.96707145
O       1.85425785     4.67820994     4.67827065     0.00000000     0.96707145     0.96707145
O       0.00000000     1.77287297     4.03776284     0.00000000     0.96670327    -0.96670327
O       0.00000000     4.03773983     1.77292537     0.00000000    -0.96670327     0.96670327
