# total energy = -19074.27536253 eV

CRYSTAL
PRIMVEC
        7.60600008     0.00000000     0.00000000
        0.00000000     7.60600008     0.00000000
       -1.89786986    -1.89786986     4.85670466
PRIMCOORD
22 1
Ti      3.69823200     6.64517999     1.19263503     0.18262475    -1.24408863    -0.22478752
Ti      3.76111302     2.82463100     1.23566402     0.91613196     2.28885653    -0.31849141
Ti     -0.31846199     6.59183601     1.32113397     2.80573536     0.17007365    -0.10876747
Ti      0.05812298     2.97714999     1.31441501    -0.64041910     0.14330203    -1.78758713
Ti      5.64722922     3.01834924     3.50867382     0.02104886     0.21596966    -0.21884981
Ti      5.68608025    -1.12201775     3.82674481     0.55279536    -0.07724959    -0.80373923
Ti      2.03217722     2.95334421     3.65646880    -0.51930364     0.67552212     0.59622105
Ti      1.80396323    -0.82788479     3.70550580    -0.25874718     0.15537208    -2.12148408
O       3.98333698     4.82115803     0.85208999    -0.95967104     0.76633327    -0.27602397
O       3.75331702     1.07275802     0.64026002     0.56959572    -0.75094264     2.89752121
O       0.19906299     4.81367800     0.56024398    -0.68079032    -0.19894921     0.69865409
O       0.09818402     0.91605202     0.84783102    -0.53818943     0.43237204     0.25116602
O       5.10094224     4.74407024     3.67456481     0.11971138     1.53447916     1.98039989
O      -0.01117278    -0.82457378     3.34582281    -1.79599001    -0.03979195    -0.95558941
O       1.68419624     4.78167320     4.15028780     0.83779762     1.00900744    -0.73650666
O       1.77385924     1.22579920     4.08705583    -0.63394454    -3.02116612    -0.32012406
O       3.82747322     2.55271221     3.31237383    -0.45004375    -0.12229920    -1.20646798
O      -0.09864679     3.20664120     3.06056679     0.58087927    -0.75578737     1.93406525
O       5.59701802     6.53116499     1.78499699    -1.04759329     0.96415350    -0.17369222
O       5.61434001     3.18447402     1.50584102     0.55939178    -1.74643558     0.28517581
O       2.00294198     6.50251698     1.78383899    -0.26025127     0.40196745     0.28392780
O       1.91637398     3.15266602     1.63364701     0.63923150    -0.80069890     0.32497933
