# total energy = -19897.73803536 eV

CRYSTAL
PRIMVEC
        8.62927343     0.00000000     0.00000000
        0.00002889     4.42200122     0.00000000
        0.00000000     0.00000000    13.03746091
PRIMCOORD
24 1
Ti      3.12771383     2.62047391     4.83680501     0.34288219    -0.42616591     2.80807095
Ti      5.50158868     1.80152751     8.20065603    -0.34288219     0.42616591    -2.80807095
Ti      7.44220284     1.80152908     1.68187342     0.33223370     0.42677629    -2.80975400
Ti      1.18709974     2.62047254    11.35558781    -0.33223370    -0.42677629     2.80975400
Ti      3.12769946     0.40947337     1.68192571     0.34288219    -0.42616591    -2.80807095
Ti      5.50160312     4.01252818    11.35553553    -0.34288219     0.42616591     2.80807095
Ti      1.18708530     0.40947167     8.20060375    -0.33223370    -0.42677629    -2.80975400
Ti      7.44221721     4.01252988     4.83685729     0.33223370     0.42677629     2.80975400
O       2.73122980     1.55706187     6.65291652     0.97381134     1.27744999    -2.35728030
O       5.89807278     2.86493955     6.38454452    -0.97381134    -1.27744999     2.35728030
O       1.58347794     1.55707966     0.13422796    -0.97446980     1.27773050    -2.35846789
O       7.04582470     2.86492176    12.90323269     0.97446980    -1.27773050     2.35846789
O       5.89805833     0.65393894     0.13418567    -0.97381134    -1.27744999    -2.35728030
O       2.73124418     3.76806248    12.90327504     0.97381134     1.27744999     2.35728030
O       7.04581033     0.65392115     6.65295880     0.97446980    -1.27773050    -2.35846789
O       1.58349212     3.76808034     6.38450224    -0.97446980     1.27773050     2.35846789
O       0.31353916     2.68971186     3.52174344    -2.29301555     0.72483076     0.10730272
O       8.31576335     1.73228963     9.51571760     2.29301555    -0.72483076    -0.10730272
O       4.62818667     1.73224835     2.99702852    -2.29266742    -0.72490866    -0.10716336
O       4.00111584     2.68975314    10.04043233     2.29266742     0.72490866     0.10716336
O       0.31352478     0.47871118     2.99698689    -2.29301555     0.72483076    -0.10730272
O       8.31577780     3.94329024    10.04047396     2.29301555    -0.72483076     0.10730272
O       4.00110146     0.47875246     9.51575917     2.29266742     0.72490866    -0.10716336
O       4.62820111     3.94324896     3.52170181    -2.29266742    -0.72490866     0.10716336
