# total energy = -4983.92047533 eV

CRYSTAL
PRIMVEC
        4.28804741     0.00000000     0.00000000
        1.83663331     3.87480692     0.00000000
       -3.06238096    -1.93742915     5.62373073
PRIMCOORD
6 1
Ti      1.37736666     2.90625433     1.40593263     0.00033424    -0.00033424     0.00000000
Ti      1.68493339    -0.96887632     4.21779776    -0.00033424     0.00033424     0.00000000
O       0.45920287     0.96869664     0.91605971    -0.00066155    -0.00096828    -1.86665373
O       2.60309704     0.96868122     4.70767073     0.00066155     0.00096828     1.86665373
O      -0.45916423    -0.96867225     3.72792491    -0.00096828    -0.00066155    -1.86665373
O       3.52146406     2.90605007     1.89580554     0.00096828     0.00066155     1.86665373
