# total energy = -19911.81469370 eV

CRYSTAL
PRIMVEC
        6.52348688     0.00000000     0.00000000
        0.34696706     6.93428766     0.00000000
        0.00000000     0.00000000    11.67925794
PRIMCOORD
24 1
Ti      2.57006250     4.10925227     4.33292139    -0.03588336    -1.13938427     0.66668344
Ti      4.30039116     2.82503512     7.34633668     0.03588336     1.13938427    -0.66668344
Ti      5.76744072     2.82503749     1.50666097     0.13295514     0.66686599    -0.58798271
Ti      1.10301302     4.10925017    10.17259724    -0.13295514    -0.66686599     0.58798271
Ti      2.39657911     0.64210871     1.50670778    -0.03588336    -1.13938427    -0.66668344
Ti      4.47387456     6.29217889    10.17255043     0.03588336     1.13938427     0.66668344
Ti      0.92952962     0.64210614     7.34628981    -0.13295514    -0.66686599    -0.58798271
Ti      5.94092412     6.29218146     4.33296827     0.13295514     0.66686599     0.58798271
O       2.18689768     2.44168046     5.95983593     1.51405534     1.48684148    -0.14545404
O       4.68355598     4.49260694     5.71942214    -1.51405534    -1.48684148     0.14545404
O       1.31923115     2.44170844     0.12024450    -1.30468467     1.12021515     0.15596498
O       5.55122258     4.49257902    11.55901324     1.30468467    -1.12021515    -0.15596498
O       4.51007259     1.02546317     0.12020663    -1.51405534    -1.48684148    -0.14545404
O       2.36038108     5.90882422    11.55905111     1.51405534     1.48684148     0.14545404
O       5.37773919     1.02543525     5.95987387     1.30468467    -1.12021515     0.15596498
O       1.49271442     5.90885228     5.71938420    -1.30468467     1.12021515    -0.15596498
O       0.44805839     4.21782669     3.15485900     0.48821770     0.06559221     0.59711425
O       6.42239534     2.71646071     8.52439915    -0.48821770    -0.06559221    -0.59711425
O       3.63468842     2.71639610     2.68480718     0.51497004     0.61888122    -0.07379043
O       3.23576531     4.21789129     8.99445070    -0.51497004    -0.61888122     0.07379043
O       0.27457500     0.75068292     2.68476991     0.48821770     0.06559221    -0.59711425
O       6.59587874     6.18360447     8.99448797    -0.48821770    -0.06559221     0.59711425
O       3.06228191     0.75074753     8.52443635    -0.51497004    -0.61888122    -0.07379043
O       3.80817182     6.18353987     3.15482166     0.51497004     0.61888122     0.07379043
