# total energy = -19518.32418788 eV

CRYSTAL
PRIMVEC
        5.93400000     0.00000000     0.00000000
        0.00000000     9.29699974     0.00000000
        0.00000000     0.00000000     4.64899994
PRIMCOORD
23 1
Ti      4.50459102     7.08177498     2.22140100     0.27126845     0.18932917     0.22408509
Ti      4.45316499     2.25158099     2.33962698     0.95409817    -0.02770133     0.50434521
Ti      1.43555501     7.02698698     2.28804702    -0.37361408     0.05855921     0.05260556
Ti      1.48225501     2.35297098     2.34319199    -0.93118449    -0.68091064     0.12662379
Ti      2.95198502     4.47451602     0.09078898     0.32038734    -0.13567742     0.01420432
Ti      3.01841597     0.02358199     0.00072201    -0.83318429     0.19298990    -0.22550563
Ti      5.90631101     4.75389298     0.04837098     0.05508539    -0.67747051    -0.81154767
Ti      0.03169401     0.00166903     4.62176600     0.54605366     0.62981432    -0.30330570
O       4.46778600     5.60225799     0.87254899    -0.63711883     0.29041649     0.18620373
O       4.40710101     0.90478800     0.93066599    -0.01117788    -0.24447446    -0.10147351
O       1.50097502     5.60466998     0.92350098     0.50499493    -0.21866983    -0.42739772
O       1.35527802     0.90253598     0.92804799     1.04035897    -0.26177542    -0.29765801
O       4.35680398     8.41867902     3.64381601     0.24081527    -0.53419007     0.63396151
O       4.45376799     3.77691298     3.76553900    -0.23161869    -0.09660847    -0.35641237
O       1.42610999     8.35739998     3.69502597     0.55209910    -0.31748739     0.50760100
O       1.54112502     3.61236298     3.82099498    -0.32385756     1.24276374    -0.32423320
O       2.95731997     1.46796002     3.33894599     0.20033915    -0.34153390    -0.49608323
O       5.90207903     5.95457399     3.12115701     0.32047270     0.46635381     0.51822352
O       0.01992702     1.30628600     3.19060602    -0.50536748     0.67206399     0.11579045
O       3.00383698     7.88710502     1.41407602    -0.56895783    -0.63655858     0.22478932
O       2.97611799     3.16798501     1.35533301     0.14155754    -0.14115542     0.91272011
O       0.03386798     7.97061400     1.48668099    -0.32939135    -0.37812046    -0.61554084
O       0.01247498     3.14984598     1.42820198    -0.40205898     0.95004354    -0.06199549
