# total energy = -19518.36230111 eV

CRYSTAL
PRIMVEC
        7.60600008     0.00000000     0.00000000
        0.00000000     7.60600008     0.00000000
       -1.89786986    -1.89786986     4.85670466
PRIMCOORD
23 1
Ti      3.83250898     6.70773102     1.18844802     0.52378636     0.84078730    -0.02439566
Ti      3.74858998     2.94162098     1.15371399     0.57421034    -1.13708699     1.57368464
Ti     -0.05281898     6.57007302     1.18463900    -0.10899605    -0.07511044    -0.48558001
Ti      0.00785198     2.66882799     1.24944702    -0.77756359     1.36745561     0.38982695
Ti      5.59312423     2.84110323     3.80165180    -0.57471916    -0.05436934    -3.04347790
Ti      5.69182320    -0.88749179     3.65959883    -0.80480315    -0.72075325    -0.73159893
Ti      1.95725721     2.90548923     3.68381779     1.26768391     0.63235560    -0.71061050
Ti      1.84315923    -0.91335776     3.50804680     1.21395735    -0.30555387     1.58761334
O       3.95404702     4.83203802     0.82853700    -0.05570040    -1.01676498    -0.83106570
O       3.78058102     1.02504200     0.81528598    -0.21373717     0.37008344    -0.74332728
O      -0.12796998     4.61606702     0.73701601     0.43766928     1.71845863     2.79648350
O       0.24179601     0.91156602     0.75120298    -0.00491261    -1.40263654     0.63736797
O       5.77561323     4.66844425     3.98135881     0.26675797     0.60824456     1.20686290
O       5.47951321     0.87942321     4.14234882     0.83332698    -0.41932934    -0.58430835
O       1.94177724     4.80329120     4.00880279    -0.66234033     0.06391045     0.63029229
O       1.87766524     1.05000922     3.83004581    -0.60163836    -1.20616253     1.28301772
O       3.82247620     2.79817420     3.18871781    -0.72195369     0.33226610    -0.29506171
O       3.88254025    -1.11892275     3.22581980    -0.42089154     0.56716011     0.17619005
O      -0.00007578    -1.03340575     3.10587479     0.14593098     0.30296451     0.54054224
O       5.69370400     6.83023200     1.66327199     1.26754327    -0.17655103    -0.95664536
O       5.80009101     2.78069500     1.82910598     1.20376138    -0.34646579    -0.84323525
O       2.02259599     6.48913303     1.68041802    -1.67194273     0.34122820    -1.15832791
O       1.94524298     3.06993699     1.65889400    -1.11542904    -0.28413066    -0.41424755
