# total energy = -19959.68703509 eV

CRYSTAL
PRIMVEC
        7.60600008     0.00000000     0.00000000
        0.00000000     7.60600008     0.00000000
       -1.89786986    -1.89786986     4.85670466
PRIMCOORD
24 1
Ti      3.97879299     6.55775800     1.20534602    -2.79877976     0.44111405    -0.55688007
Ti      3.77650398     2.72937200     1.22364598    -0.18745020    -0.05337355    -1.80591936
Ti     -0.01286102     6.68481399     1.10909799     2.54734994     1.06455255     1.95771735
Ti     -0.07174802     2.96746801     1.28296701     0.02484227    -0.38991154     0.62848275
Ti      5.59840722     2.79603622     3.60241683     2.77056420     0.98223993     0.91959190
Ti      5.69089121    -0.88147875     3.65460879     1.08940921    -1.38628663     0.01700631
Ti      1.97162924     2.77422020     3.62921982    -2.32345871     0.54074588     0.83830078
Ti      2.01252321    -0.96079379     3.66533379    -1.45090928    -0.49472285    -2.25218128
O       3.82666300     4.62373401     0.77787399     0.37576044     0.64912023    -0.27517602
O       3.85586601     0.87021098     0.82089801     0.16311162     1.53870091    -0.12818471
O      -0.17072301     4.86485299     0.92097802     0.31007747    -3.90336311    -1.46471508
O      -0.13783898     0.92730000     0.92303001     0.49020311     2.33981016    -1.57479433
O       5.47319621     4.79904323     4.07352482     0.29182983    -0.02284992    -0.96968009
O       5.56642624     0.94550925     3.90505579     0.93347972     1.44434062     2.08845311
O       1.94942824     4.79150822     4.06396782     0.88949764    -1.82538905     0.15283928
O       1.80152325     0.87659524     4.02497884     0.33365398     1.81426799     0.56777924
O       3.85190221     2.88427923     3.08629783    -2.77654716    -0.09323852     1.35181481
O       3.86300424    -0.56401378     3.13462483     0.05549934    -1.67895001     0.23977808
O      -0.04762680     2.99827824     3.41464480    -0.20525484    -0.40418297    -1.34861996
O       0.13573021    -0.97544677     3.17290684    -1.82637712     0.12135071     0.65798874
O       5.75629800     6.54866600     1.59979803    -0.60043046     0.16697444     1.11417974
O       5.67594502     2.69627800     1.65820300     0.27502407     0.54984270    -0.19880754
O       1.96853900     6.74470902     1.57513598     0.22147979    -0.86615201     0.17575656
O       1.75256102     2.91736302     1.67885700     1.39742465    -0.53464027    -0.13473074
