# total energy = -19074.41457018 eV

CRYSTAL
PRIMVEC
        5.93400000     0.00000000     0.00000000
        0.00000000     9.29699974     0.00000000
        0.00000000     0.00000000     4.64899994
PRIMCOORD
22 1
Ti      4.39730800     6.97316998     2.32722000    -0.35539755    -0.38561959    -0.61735424
Ti      4.46155298     2.41287300     2.17053199    -0.39096878    -0.40632804     0.18534627
Ti      1.46620098     6.98375701     2.65271301     0.37760598     0.63521544     0.40777917
Ti      1.60780898     2.43003199     2.17044002    -0.00170259    -0.42130601     0.06289203
Ti      3.06067300     4.55455202     4.40887698    -0.83604078     0.29414125     1.12987119
Ti      2.96263101     9.28017302     4.53659100    -0.30645504     0.69426419     0.45226210
Ti      5.88159600     4.63122102     4.59238502    -0.33584173    -0.18781890    -0.03417949
Ti      5.82484201     9.17707500     0.25384299     1.32208256    -0.25882534     1.36840820
O       4.36342198     5.54853999     0.90797799     0.75756863    -0.32918977     0.80781109
O       4.34428100     0.86038500     1.00578900     0.82453663    -0.07541203    -0.36145379
O       1.58415200     0.81235100     0.90852003    -0.89396364     1.03141307     0.35872842
O       4.60615400     8.18158300     3.91277601    -0.84925137     1.78138537     0.11933728
O       4.45261301     3.95378598     3.43193799     0.74738911    -1.59844694    -0.47255017
O       1.43991199     8.30468101     3.91697800    -0.49260966     0.24603435    -0.39847589
O       1.45197199     3.87120803     3.45662601     0.21466380    -0.01373895     0.65126710
O       3.01946300     6.21285398     3.59678702    -0.84543637     0.24798119    -1.93124732
O       2.98182400     1.52030401     3.32009299     0.32019451    -0.32570387    -0.48577567
O       5.83386400     6.09129699     3.35466901     0.98819898    -0.34881424    -0.64764236
O       2.84213200     7.85308898     1.53722499     0.42948314    -0.76480860     0.30344402
O       3.02807298     3.15741999     1.19889699     0.03385656     0.72706325    -0.55687210
O       0.03711199     7.97422601     1.68919199    -0.34552528    -0.18089929    -0.82685089
O       0.07938199     3.18965800     1.18906599    -0.36238710    -0.36058655     0.48525476
