# total energy = -39033.28447249 eV

CRYSTAL
PRIMVEC
        5.93200024     0.00000000     0.00000000
        0.00000000     9.29399984     0.00000000
        0.00000000     0.00000000     9.29399984
PRIMCOORD
46 1
Ti      4.34469001     6.83755301     6.88057602     1.58487768     1.44220455     1.32663342
Ti      4.42747201     6.84665798     2.47854702    -0.40655378     0.93463106    -0.79243306
Ti      4.35397400     2.33722700     7.05943698     1.26267746     0.06617431    -0.38965494
Ti      4.36401101     2.48543399     2.10922199    -0.08794230    -0.44047693     1.20642427
Ti      1.43210101     6.96067001     6.95590001    -1.57566336     0.23546531     2.07010391
Ti      1.42481297     6.99530901     2.25835599     0.84214844     1.27007812    -0.06678931
Ti      1.44677499     2.33056900     7.01556199    -1.59825540     0.58137626     0.23279214
Ti      1.44182999     2.13074098     2.49160298     0.94981780     0.47695447    -0.15025172
Ti      3.03732501     4.66375298     4.61274400    -0.66622604    -0.62641327     0.23837606
Ti      3.02351502     4.85681298     9.21105501    -1.43022037    -0.37246840     0.09782717
Ti      3.02193701     0.00018701     4.86736197    -1.77891506    -0.08123918    -2.51542171
Ti      3.04096401     9.28698300     0.10057098    -0.20067828    -1.69976053    -2.06865355
Ti      0.08790899     4.70939902     4.52168403     0.32529378    -1.34372920     0.95934168
Ti      0.00126701     4.62524798     9.24671600     0.94964862     0.07375881    -0.26267917
Ti      5.87979198     9.21068099     4.84088200     0.85245291    -1.13781204    -0.85996516
Ti      5.90789299     9.22256498     0.20306600     1.07857561    -1.54243107    -3.23228051
O       4.56973898     5.75209897     5.33334398    -0.96762681    -0.67705245    -0.42425403
O       4.47185098     5.58834597     0.81447798     0.08792533    -0.48360591     0.70188751
O       4.37489100     0.75888299     5.90236700     0.58172953    -0.41212999    -1.81751787
O       4.61345299     1.02773202     0.79847100    -1.17863424     0.71578253     1.05910103
O       1.47107799     5.66551801     5.47849798     0.00240681    -0.75562796    -0.46313787
O       1.58269200     5.72518502     0.84386801    -0.43941506    -1.54316641    -1.31180277
O       1.40001901     0.98636703     5.41315502     0.58647245     0.63779734     0.44392658
O       1.58654499     0.75202199     0.89982199    -1.53540810     2.14260005     2.25804339
O       4.56813399     8.16774100     8.47082499    -0.11863820     2.25517250    -0.01553127
O       4.50715001     8.43391498     3.60725298     0.05876927    -0.16197056     1.74527884
O       4.42022101     3.70589199     8.31918999     0.49677820     1.24895882     1.90893836
O       4.37506298     3.86541301     3.60514501     0.40420842    -1.00608281    -0.35173450
O       1.59132701     8.42035201     8.32414103    -0.44638430    -0.62843750    -0.04287265
O       1.54651602     8.43019799     3.73494002    -1.09205025    -0.09071832    -0.13382571
O       1.54241801     3.99146297     8.16918602    -0.47454149    -0.88938348     1.36285924
O       1.57401699     3.75929302     3.59488500     0.03148163    -1.17287085     0.43051416
O       3.02930602     6.15385002     7.98012099    -1.07318323     0.04022647    -1.42150510
O       2.80766600     5.98876498     3.04336001     1.62771896     0.25320002     1.22895589
O       2.98735099     1.55364297     8.02273802    -0.64372014    -0.11099714    -0.54340157
O       3.17879600     1.30504302     3.14550302    -0.60372250     1.57497405    -0.18982745
O       5.76075700     6.06462899     7.82623101     0.97099264    -0.87402782    -0.03978501
O       0.09510501     5.77267900     2.87454199    -0.98205327     1.17633078     1.47851419
O       0.07330301     1.36080301     7.91272498     0.49351341     1.22878234    -0.72751216
O       2.75400103     7.80343299     6.07568599     1.88076549     1.31051054    -1.21667629
O       3.04493098     7.94514603     1.31485798    -0.00633520    -1.42969047     1.85852775
O       3.00437002     3.20897101     6.01497201     0.24064172     0.51400511    -0.59349722
O       5.82177601     7.84760702     6.01798599     0.99490802     0.35511859     0.13419287
O       5.81191299     7.80320598     1.47078101     0.47897099     0.60872690     0.01148255
O       0.05729598     3.38773899     6.08536502    -0.22465922    -0.89187539    -0.65435114
O       0.04207001     3.28689601     1.48117898     0.74805169    -0.77086124    -0.46835927
