# total energy = -19077.21331316 eV

CRYSTAL
PRIMVEC
        5.17575250     0.00001323     0.00000000
        0.00001429     5.50856584     0.00000000
        0.00000000     0.00000000     9.26345890
PRIMCOORD
22 1
Ti      1.90689546     3.42547861     3.30063848     0.04778706    -0.03371849     0.03059871
Ti      3.41155319     2.26700837     5.92457938     0.03650428     0.00611460    -0.00305756
Ti      4.46972794     2.24727885     1.12957262    -0.02421286    -0.00300331     0.02596018
Ti      0.74278741     3.28184025     8.08782852     0.00652058     0.01113982     0.04022158
Ti      1.80938655     0.62936234     1.23837366    -0.01488129    -0.02506929     0.01417887
Ti      3.19565904     4.98341625     8.14054370    -0.02290468     0.00500568     0.01570816
Ti      0.79752599     0.56461954     5.78522479     0.00328896     0.02232104    -0.00878598
Ti      4.46319984     4.93936553     3.50540088     0.00848593    -0.00573048    -0.04788990
O       3.46696061     3.48905140     4.52487261    -0.03407150     0.02382282     0.00171107
O       0.95290760     1.95295414     0.13454499    -0.03120395     0.01807769     0.00902740
O       4.14664948     3.61977490     9.14268898    -0.00536898    -0.03953150    -0.03659015
O       3.56369697     0.82857624     0.07473495    -0.02379557     0.00631206    -0.00295317
O       1.55363085     4.73721423     9.11134213     0.02198603     0.04611327    -0.01742977
O       4.28781003     0.81826615     4.72476079    -0.01266397     0.06084981    -0.00956065
O       0.93917276     4.59360306     4.59607025    -0.00708648    -0.00406157    -0.04207252
O       0.16901687     3.30550521     2.50506298     0.00220035     0.00050754    -0.00335426
O       5.09776735     2.03135974     6.80141137    -0.01562563    -0.04804262    -0.00021752
O       2.73382335     2.09062338     2.16830744     0.02339011    -0.00158534     0.00716644
O       2.34722610     3.38915860     7.06088025     0.00037564    -0.01228448    -0.00538723
O       0.19734314     0.52514021     2.18681476    -0.00264901     0.00852938    -0.00429503
O       2.45510329     0.65710593     6.69063930     0.02255373    -0.01552715    -0.00762744
O       2.77547626     4.87434363     2.46612334     0.02137102    -0.02023922     0.04464902
