# total energy = -19073.34126700 eV

CRYSTAL
PRIMVEC
        7.60600008     0.00000000     0.00000000
        0.00000000     7.60600008     0.00000000
       -1.89786986    -1.89786986     4.85670466
PRIMCOORD
22 1
Ti      3.56834697     6.70306600     1.24739201     0.47291141     0.09149557     0.13422398
Ti      3.94949498     2.85089698     1.04435501     1.12935363     0.70793243     1.92252639
Ti     -0.11327399     6.61756302     1.13668803    -0.58908058    -0.23137160     1.33946245
Ti      0.24021102     2.78851799     1.05287699    -1.45442578     0.25644938    -0.40285576
Ti      5.97101420     2.97160824     3.50463980    -1.68714618     0.03993105    -0.32236555
Ti      5.86061222    -1.12770979     3.71567780     1.35874162     4.91487969    -0.85633065
Ti      2.06180723     2.78194322     3.64225081     1.03251633     0.54597267    -0.76017650
Ti      1.20891522    -0.97729280     3.93336582     1.05098766    -0.20779561    -1.05925016
O       3.71298498     4.78226800     0.72713801     0.06048265     0.33251164    -0.63349640
O       3.56750701     1.06472198     1.01172398    -0.27818627    -2.58387350     0.77960248
O       0.44082100     4.78317601     0.48690001    -0.69817330    -0.68980409     0.37440161
O      -0.15928098     0.82270102     0.93675401     0.66388736     1.31617339     0.40273929
O       5.45810624     4.89383121     4.11888981    -1.08323419    -5.92434684    -0.93022367
O       5.45796824     0.65370520     4.08036983     1.05521584     2.28392773    -0.38439858
O       2.04028723     4.97448422     4.31611179    -0.27444942    -0.80535723    -1.22191003
O       2.16462923     0.63815421     4.01167284    -0.37796696     2.81671321    -0.60760204
O       3.93422325     2.93248521     3.07478383    -0.70597223    -0.07371818     1.07194730
O       0.16679820     3.32424423     3.11805783     0.45657153    -1.26801404     0.08434841
O       5.66379199     6.52109602     1.87577798    -0.81770521    -0.12085655    -0.81599980
O       5.91492898     2.92109202     1.48960401    -0.82608907     0.14336142     0.58211751
O       1.53450300     6.79915602     1.96567202     1.79790137    -1.16326932     0.66312580
O       2.01702000     2.92198099     1.47401497    -0.28614075    -0.38094096     0.64011339
