# total energy = -19901.68234873 eV

CRYSTAL
PRIMVEC
        7.37285917     0.00000000     0.00000000
        0.00003428     6.42023348     0.00000000
        0.00000000     0.00000000    12.11735266
PRIMCOORD
24 1
Ti      2.67232714     3.80462428     4.49545157     0.38953976    -0.93923307     1.01173101
Ti      4.70056638     2.61560892     7.62190158    -0.38953976     0.93923307    -1.01173101
Ti      6.35862898     2.61561100     1.56317659     0.38908030     0.93900013    -1.01182974
Ti      1.01426454     3.80462242    10.55417669    -0.38908030    -0.93900013     1.01182974
Ti      2.67231027     0.59450768     1.56322518     0.38953976    -0.93923307    -1.01173101
Ti      4.70058325     5.82572573    10.55412810    -0.38953976     0.93923307     1.01173101
Ti      1.01424768     0.59450533     7.62185299    -0.38908030    -0.93900013    -1.01182974
Ti      6.35864585     5.82572801     4.49550015     0.38908030     0.93900013     1.01182974
O       2.33356857     2.26067325     6.18339250     0.91630757     1.44151395    -0.91369250
O       5.03932495     4.15955995     5.93396064    -0.91630757    -1.44151395     0.91369250
O       1.35292824     2.26069920     0.12475495    -0.91630500     1.44178314    -0.91427305
O       6.01996534     4.15953408    11.99259785     0.91630500    -1.44178314     0.91427305
O       5.03930808     0.94944314     0.12471562    -0.91630757    -1.44151395    -0.91369250
O       2.33358544     5.47079006    11.99263718     0.91630757     1.44151395     0.91369250
O       6.01994841     0.94941727     6.18343183     0.91630500    -1.44178314    -0.91427305
O       1.35294498     5.47081601     5.93392131    -0.91630500     1.44178314     0.91427305
O       0.26789375     3.90514998     3.27319938    -0.82610038     0.08692620    -0.01474631
O       7.10499977     2.51508323     8.84415377     0.82610038    -0.08692620     0.01474631
O       3.95433071     2.51502356     2.78551574    -0.82627239    -0.08683390     0.01463395
O       3.41856281     3.90520964     9.33183719     0.82627239     0.08683390    -0.01463395
O       0.26787681     0.69503317     2.78547702    -0.82610038     0.08692620     0.01474631
O       7.10501671     5.72520004     9.33187591     0.82610038    -0.08692620    -0.01474631
O       3.41854587     0.69509284     8.84419242     0.82627239     0.08683390     0.01463395
O       3.95434765     5.72514037     3.27316066    -0.82627239    -0.08683390    -0.01463395
