# total energy = -19948.34008306 eV

CRYSTAL
PRIMVEC
        6.33512117     0.00000000     0.00000000
        0.00002493     4.49498972     0.00000000
        0.00000000     0.00000000     9.84242529
PRIMCOORD
24 1
Ti      2.29619160     2.66372673     3.65146958     0.20279532     0.89606141    -1.02031284
Ti      4.03895461     1.83126299     6.19095582    -0.20279532    -0.89606141     1.02031284
Ti      5.46364298     1.83126456     1.26970377     0.20491777    -0.89599199     1.02161099
Ti      0.87150324     2.66372538     8.57272168    -0.20491777     0.89599199    -1.02161099
Ti      2.29617913     0.41623198     1.26974323     0.20279532     0.89606141     1.02031284
Ti      4.03896708     4.07875791     8.57268222    -0.20279532    -0.89606141    -1.02031284
Ti      0.87149077     0.41623030     6.19091630    -0.20491777     0.89599199     1.02161099
Ti      5.46365544     4.07875958     3.65150904     0.20491777    -0.89599199    -1.02161099
O       2.00511468     1.58276232     5.02251430     1.25854209    -0.36644790     0.74650517
O       4.33003153     2.91222746     4.81991109    -1.25854209     0.36644790    -0.74650517
O       1.16250063     1.58278043     0.10133329    -1.25854878    -0.36715418     0.74647380
O       5.17264569     2.91220935     9.74109178     1.25854878     0.36715418    -0.74647380
O       4.33001912     0.66473255     0.10130133    -1.25854209     0.36644790     0.74650517
O       2.00512709     3.83025718     9.74112374     1.25854209    -0.36644790    -0.74650517
O       5.17263322     0.66471449     5.02254620     1.25854878     0.36715418     0.74647380
O       1.16251294     3.83027534     4.81987914    -1.25854878    -0.36715418    -0.74647380
O       0.23018489     2.73410756     2.65868463    -0.30754802     0.06010701     0.94897447
O       6.10496132     1.76088222     7.18374076     0.30754802    -0.06010701    -0.94897447
O       3.39775257     1.76084031     2.26255937    -0.30618250    -0.05991238    -0.94873870
O       2.93739365     2.73414947     7.57986586     0.30618250     0.05991238     0.94873870
O       0.23017243     0.48661264     2.26252790    -0.30754802     0.06010701    -0.94897447
O       6.10497379     4.00837708     7.57989728     0.30754802    -0.06010701     0.94897447
O       2.93738123     0.48665455     7.18377212     0.30618250     0.05991238    -0.94873870
O       3.39776498     4.00833522     2.65865322    -0.30618250    -0.05991238     0.94873870
