# total energy = -4987.72576458 eV

CRYSTAL
PRIMVEC
        3.24865988     0.00000000     0.00000000
        0.00000000     5.09016299     0.00000000
        0.00000000    -0.00006606     5.09016299
PRIMCOORD
6 1
Ti      1.62432988     2.54504841     2.54508144     0.00000000     0.00000000     0.00000000
Ti      0.00000000     0.00000000     0.00000000     0.00000000     0.00000000     0.00000000
O       1.62432988     0.99198491     0.99199778     0.00000000    -0.69463880    -0.69463880
O       1.62432988     4.09811191     4.09816509     0.00000000     0.69463880     0.69463880
O       0.00000000     1.55303672     3.53708025     0.00000000     0.69526615    -0.69526615
O       0.00000000     3.53706009     1.55308262     0.00000000    -0.69526615     0.69526615
