# total energy = -19520.00473064 eV

CRYSTAL
PRIMVEC
        5.17575250     0.00001323     0.00000000
        0.00001429     5.50856584     0.00000000
        0.00000000     0.00000000     9.26345890
PRIMCOORD
23 1
Ti      1.84608330     3.38284781     3.40751442     0.01049010    -0.01391302    -0.04912994
Ti      3.37874228     2.17358645     5.77033490    -0.02484664    -0.01675434     0.00129918
Ti      4.56754808     1.94567168     1.42803742     0.00892713     0.01602543    -0.03969271
Ti      0.85035208     3.30242190     7.94582719     0.01813477     0.01470517     0.02199477
Ti      2.02168559     0.50516271     1.24404557    -0.01560532    -0.03536657    -0.00365765
Ti      3.16240763     5.15940345     7.91724065    -0.01300902     0.03582011     0.02422623
Ti      0.62924225     0.71525825     5.64817717     0.00548854    -0.02951139     0.05281048
Ti      4.56663696     4.83980279     3.56444224    -0.00247109    -0.03095301     0.02037960
O       1.54289212     1.95028142     4.65521646    -0.00214584     0.00791334     0.01048445
O       3.57102041     3.52948119     4.51045396    -0.00496326    -0.00263384     0.00114826
O       0.73570048     2.10698306     0.10284316    -0.00294211     0.01409171    -0.00291975
O       3.52006361     0.88623462     0.07660846     0.03607516    -0.03692774    -0.02028215
O       1.71432421     4.69030356     9.15179843    -0.02323147     0.04354808    -0.00368105
O       4.06734423     0.77531154     4.69629982     0.00467041     0.00262818     0.02447974
O       1.02658386     4.63426812     4.62161404    -0.01465709     0.00651852    -0.00888265
O       0.17094501     3.35651409     2.40595084     0.03802740     0.02500013    -0.00633340
O       4.95048206     2.13815011     6.83456906    -0.02663767     0.01496614    -0.00607321
O       2.78057291     2.14134336     2.10151559    -0.02353846    -0.05309819    -0.01261692
O       2.48696473     3.40185972     7.13969332     0.02163584     0.01249994    -0.00181751
O       0.25904390     0.54016927     2.18847797     0.03776823     0.00773440     0.03355008
O       4.90159899     4.76682154     7.37500669     0.00347356    -0.02165230    -0.02562260
O       2.32888703     0.72089099     6.74867513    -0.03463946     0.03905764    -0.01212018
O       2.80406616     4.87128754     2.45908049     0.00399652     0.00030159     0.00245669
