# total energy = -19955.07322519 eV

CRYSTAL
PRIMVEC
        4.86520735     0.00000000     0.00000000
        0.00002667     5.17805189     0.00000000
        0.00000000     0.00000000     8.70765137
PRIMCOORD
24 1
Ti      1.76341947     3.06850876     3.23047661    -0.03768313     0.62855602    -0.68817350
Ti      3.10181455     2.10954318     5.47717500     0.03768313    -0.62855602     0.68817350
Ti      4.19593797     2.10954496     1.12331440    -0.03367452    -0.62851694     0.67544114
Ti      0.66929605     3.06850718     7.58433732     0.03367452     0.62851694    -0.67544114
Ti      1.76340623     0.47948291     1.12334932    -0.03770807     0.62409773     0.67464461
Ti      3.10182779     4.69856917     7.58430240     0.03770807    -0.62409773    -0.67464461
Ti      0.66928282     0.47948099     5.47714008     0.03383444     0.62357297     0.68839230
Ti      4.19595120     4.69857110     3.23051153    -0.03383444    -0.62357297    -0.68839230
O       1.53987823     1.82328014     4.44344793    -1.27752764    -1.13220447    -0.14174291
O       3.32535579     3.35477184     4.26420368     1.27752764     1.13220447     0.14174291
O       0.89277267     1.82330100     0.08965015     1.27735718    -1.13308378    -0.14098212
O       3.97246140     3.35475099     8.61800121    -1.27735718     1.13308378     0.14098212
O       3.32534255     0.76574585     0.08962190     1.27764231     1.13248292    -0.14147655
O       1.53989147     4.41230609     8.61802947    -1.27764231    -1.13248292     0.14147655
O       3.97244817     0.76572499     4.44347619    -1.27751556     1.13276008    -0.14115619
O       0.89278580     4.41232699     4.26417543     1.27751556    -1.13276008     0.14115619
O       0.17678044     3.14958470     2.35215393    -0.45951801     0.28081034    -0.30553433
O       4.68845358     2.02846724     6.35549769     0.45951801    -0.28081034     0.30553433
O       2.60938801     2.02841898     2.00169956    -0.46053771    -0.28073114     0.30636814
O       2.25584601     3.14963295     6.70595190     0.46053771     0.28073114    -0.30636814
O       0.17676720     0.56055870     2.00167176    -0.45982166     0.28007089     0.30603698
O       4.68846682     4.61749323     6.70597971     0.45982166    -0.28007089    -0.30603698
O       2.25583277     0.56060696     6.35552545     0.46035413     0.28105947     0.30591331
O       2.60940125     4.61744497     2.35212612    -0.46035413    -0.28105947    -0.30591331
