# total energy = -19904.57615975 eV

CRYSTAL
PRIMVEC
        8.08711362     0.00000000     0.00000000
        0.00003052     5.16428047     0.00000000
        0.00000000     0.00000000    12.35127880
PRIMCOORD
24 1
Ti      2.93120757     3.06034780     4.58223636     0.53434948    -0.55908196     2.11268988
Ti      5.15593604     2.10393260     7.76904257    -0.53434948     0.55908196    -2.11268988
Ti      6.97462524     2.10393434     1.59335376     0.53368074     0.55909045    -2.11308711
Ti      1.11251843     3.06034626    10.75792524    -0.53368074    -0.55909045     2.11308711
Ti      2.93119258     0.47820763     1.59340330     0.53351413    -0.58282225    -2.11328560
Ti      5.15595103     4.68607290    10.75787576    -0.53351413     0.58282225     2.11328560
Ti      1.11250337     0.47820576     7.76899303    -0.53295697    -0.58310456    -2.11458324
Ti      6.97464023     4.68607477     4.58228584     0.53295697     0.58310456     2.11458324
O       2.55963312     1.81843089     6.30276306     0.72094325     1.47434926    -1.93363459
O       5.52751055     3.34584945     6.04851588    -0.72094325    -1.47434926     1.93363459
O       1.48399218     1.81845175     0.12716334    -0.72078410     1.47447345    -1.93428533
O       6.60315155     3.34582866    12.22411519     0.72078410    -1.47447345     1.93428533
O       5.52749556     0.76370915     0.12712326    -0.72070825    -1.47468530    -1.93314505
O       2.55964811     4.40057119    12.22415528     0.72070825     1.47468530     1.93314505
O       6.60313650     0.76368836     6.30280308     0.72037092    -1.47502520    -1.93418558
O       1.48400704     4.40059205     6.04847579    -0.72037092     1.47502520     1.93418558
O       0.29384199     3.14120814     3.33638854    -2.18464377     0.70877344     0.22605687
O       7.79330168     2.02307220     9.01489033     2.18464377    -0.70877344    -0.22605687
O       4.33740811     2.02302419     2.83929015    -2.18456664    -0.70883952    -0.22644537
O       3.74973549     3.14125621     9.51198852     2.18456664     0.70883952     0.22644537
O       0.29382693     0.55906783     2.83925073    -2.18465894     0.70860066    -0.22727660
O       7.79331667     4.60521251     9.51202794     2.18465894    -0.70860066     0.22727660
O       3.74972050     0.55911591     9.01492968     2.18547064     0.70838238    -0.22728098
O       4.33742310     4.60516443     3.33634912    -2.18547064    -0.70838238     0.22728098
