# total energy = -39481.09012754 eV

CRYSTAL
PRIMVEC
        5.93188753     0.00000000     0.00000000
        0.00000000     9.29428401    -0.00002646
        0.00000000    -0.00002646     9.29428401
PRIMCOORD
47 1
Ti      4.44891576     6.98130947     6.93934353     0.00000000     0.01494634     0.00182317
Ti      4.44891576     7.04699645     2.39984122     0.00000000     0.03347526     0.03347526
Ti      4.44891576     2.38633216     7.03348739     0.00000000     0.04596389     0.04596389
Ti      4.44891576     2.29221476     2.33418070     0.00000000     0.00182317     0.01494634
Ti      1.48297199     6.93979879     6.98285533     0.00000000     0.01293831    -0.01924189
Ti      1.48297199     6.99844512     2.35128989     0.00000000     0.07886708     0.07886708
Ti      1.48297199     2.13881702     6.78597225     0.00000000     0.01391482     0.01391482
Ti      1.48297199     2.33572656     2.29267001     0.00000000    -0.01924189     0.01293831
Ti      2.96316736     4.64908186     4.64196398    -0.00382452     0.02052512    -0.03849766
Ti      3.09164471     4.75663146     0.10947623     0.00767629     0.00930791     0.00930791
Ti      2.99944073    -0.01555773     4.63159751     0.08207556     0.03318293     0.03318293
Ti      2.96316736    -0.00516479     0.00195309    -0.00382452    -0.03849766     0.02052512
Ti      0.00277641     4.64908186     4.64196398     0.00382452     0.02052512    -0.03849766
Ti     -0.12570094     4.75663146     0.10947623    -0.00767629     0.00930791     0.00930791
Ti     -0.03349697    -0.01555773     4.63159751    -0.08207556     0.03318293     0.03318293
Ti      0.00277641    -0.00516479     0.00195309     0.00382452    -0.03849766     0.02052512
O       4.44891576     5.55470445     5.54601145     0.00000000    -0.03201487     0.00323496
O       4.44891576     5.62826003     0.98110480     0.00000000    -0.06984533    -0.06984533
O       4.44891576     0.92146409     5.56861933     0.00000000    -0.00645681    -0.00645681
O       4.44891576     0.89888268     0.90757568     0.00000000     0.00323496    -0.03201487
O       1.48297199     5.56886794     5.53116905     0.00000000     0.01455733    -0.00987253
O       1.48297199     5.44338797     0.79623274     0.00000000     0.05066412     0.05066412
O       1.48297199     0.87231886     5.51947409     0.00000000    -0.00318020    -0.00318020
O       1.48297199     0.88404027     0.92173917     0.00000000    -0.00987253     0.01455733
O       4.44891576     8.38572520     8.37036640     0.00000000    -0.01691941    -0.03788213
O       4.44891576     8.38591570     3.73876047     0.00000000    -0.03988271    -0.03988271
O       4.44891576     3.75443779     8.40159302     0.00000000     0.02729690     0.02729690
O       4.44891576     3.72323762     3.73859642     0.00000000    -0.03788213    -0.01691941
O       1.48297199     8.38610499     8.37245588     0.00000000    -0.01458305    -0.07088945
O       1.48297199     8.35565857     3.70850334     0.00000000     0.07275119     0.07275119
O       1.48297199     3.72532711     3.73897622     0.00000000    -0.07088945    -0.01458305
O       2.94017060     5.99743138     7.87371111     0.02479033    -0.05447193     0.05659823
O       2.96634561     6.04916745     3.21675604     0.00775394     0.00480154    -0.02498033
O       2.91904934     1.48622729     7.91716365     0.03642175    -0.01580509     0.01437864
O       2.97560810     1.41141916     3.22526959    -0.02353177    -0.03114301     0.00127141
O       0.02577317     5.99743138     7.87371111    -0.02479033    -0.05447193     0.05659823
O      -0.00040185     6.04916745     3.21675604    -0.00775394     0.00480154    -0.02498033
O       0.04689442     1.48622729     7.91716365    -0.03642175    -0.01580509     0.01437864
O      -0.00966433     1.41141916     3.22526959     0.02353177    -0.03114301     0.00127141
O       2.97560810     7.87239836     6.05854794    -0.02353177     0.00127141    -0.03114301
O       2.96634561     7.86391127     1.40201221     0.00775394    -0.02498033     0.00480154
O       2.91904934     3.27000842     6.13338252     0.03642175     0.01437864    -0.01580509
O       2.94017060     3.22658234     1.35030260     0.02479033     0.05659823    -0.05447193
O      -0.00966433     7.87239836     6.05854794     0.02353177     0.00127141    -0.03114301
O      -0.00040185     7.86391127     1.40201221    -0.00775394    -0.02498033     0.00480154
O       0.04689442     3.27000842     6.13338252    -0.03642175     0.01437864    -0.01580509
O       0.02577317     3.22658234     1.35030260    -0.02479033     0.05659823    -0.05447193
