# total energy = -4984.11094667 eV

CRYSTAL
PRIMVEC
        4.22054363     0.00000000     0.00000000
       -0.00000724     3.11953242     0.00000000
       -2.11029764    -1.55980702     4.79159598
PRIMCOORD
6 1
Ti     -0.00018226     2.33976419     1.19789871    -0.00481722    -0.01063691    10.76976841
Ti      2.11042080    -0.78003878     3.59369655     0.00481722     0.01063691   -10.76976841
O       0.00004402     0.77987572     0.78051170     0.00346611     0.00527951    -3.73409010
O       2.11019437     0.77984963     4.01108357    -0.00346611    -0.00527951     3.73409010
O      -0.00001889    -0.77987272     3.17630954    -0.00154678    -0.00035661    -0.07588125
O       2.11025723     2.33959797     1.61528578     0.00154678     0.00035661     0.07588125
