# total energy = -19517.73705874 eV

CRYSTAL
PRIMVEC
        5.17600016     0.00000000     0.00000000
        0.00000000     5.50899976     0.00000000
        0.00000000     0.00000000     9.26300011
PRIMCOORD
23 1
Ti      1.82344198     3.21013800     3.36699402     0.15050164    -0.54206357     3.07059328
Ti      3.34924399     2.24753903     5.84925698     0.75062588     0.68325318    -2.55218850
Ti      4.31974798     2.09180698     1.54465802     1.34090921    -0.37124069    -2.06149457
Ti      0.82868501     3.38873802     7.78460000     0.10937194    -0.06168053     0.84393202
Ti      2.06794399     0.25024300     1.29392902    -1.80417204    -0.01230145    -0.73998613
Ti      3.24644602     5.21144101     7.90071599     0.38551675    -0.27472479     0.32922037
Ti      0.79669900     0.55935401     5.91824798    -1.13525328     0.07284067    -3.07339553
Ti      4.51527098     4.91824702     3.37851400     0.20224845     0.46777820     3.20987591
O       1.73610599     1.88691002     4.85537500    -0.69459020     0.00892507    -1.16528943
O       3.50116898     3.49989298     4.38660301     0.24997303    -0.05675712     0.61089768
O       5.11112398     2.67746601     9.21954100     0.14861573     0.59395873     0.28744995
O       3.52671898     0.66359102     0.22586597     0.78403789     0.37071259    -0.09240651
O       1.75085400     4.66626800     9.03457799    -0.14397823    -0.34016582     0.29322388
O       4.25965000     0.68943699     4.88231398    -0.17612475     0.14042317    -0.49450842
O       0.94874702     4.67187601     4.47237503     0.16241125    -0.11291646     0.19945314
O       0.08512499     3.30563698     2.57900698     0.46933860     0.66802684    -0.56401617
O       5.03956202     2.14190599     6.71648398     0.36471292    -0.07101981     0.07285918
O       2.58728199     1.86665402     2.14037502    -0.98133002     1.37506273     0.59066849
O       2.63939600     3.66648898     6.95118700    -0.45721842    -0.44797401     0.45758788
O       0.17139501     0.74419800     2.18754700     0.98163495    -1.40732520    -0.36977465
O       5.11938502     4.90119201     7.20024798    -1.20500425    -0.22026957     0.66777127
O       2.38228502     1.01433801     6.99241800    -0.38724787    -0.36051842     0.93992573
O       2.76607701     4.57304100     2.40928898     0.88502032    -0.10202295    -0.46039861
