# total energy = -19069.93435572 eV

CRYSTAL
PRIMVEC
        5.17600016     0.00000000     0.00000000
        0.00000000     5.50899976     0.00000000
        0.00000000     0.00000000     9.26300011
PRIMCOORD
22 1
Ti      1.92095199     3.49219001     3.26192101     1.65259594    -1.73914393     2.09413473
Ti      3.49396301     2.20622399     5.97763098     0.50315968     1.82973499    -1.19107864
Ti      4.53803200     2.37615799     1.36533901    -0.01389193    -0.90575833     0.49431045
Ti      0.77681702     2.52764699     7.68087898     2.46648255     0.65644993     1.70395889
Ti      1.86233000     0.79955200     1.32107301     0.87562782    -0.03758131     0.11913031
Ti      2.81250199     5.37697999     8.01710201     2.74059284    -1.99973279     3.34765135
Ti      0.50415198     5.25170299     6.21909499     0.68410370     1.19176949    -1.61184342
Ti      4.39577598     5.08095903     3.38411201     0.07778258    -0.76152890     0.30988207
O       3.70627200     3.42362398     4.49439801    -0.91356523    -0.32880231     0.03658244
O       1.01298300     2.34434401     0.41885501     0.42942709     2.06130765    -1.34624837
O       4.82835399     3.84309099     6.87068602     1.72573639    -0.58768010     0.83836403
O       3.65658098     0.82468999     0.27516899    -1.34674151     0.17428384     0.22273012
O       1.22354797     0.24375000     8.89653100     0.69216642    -3.05086726     0.28817012
O       4.48540998     0.40831301     5.02527900    -2.34066145     2.74587312     0.76235474
O       1.18871800     4.62573599     4.60860398     0.70506900    -0.57478729     0.17912985
O       0.33442102     3.86500099     2.43826498    -2.49389926    -0.14988586    -1.73960185
O       4.61091501     1.42625800     7.46782502    -1.18790564    -2.34518557    -1.99892906
O       3.17978699     1.80375701     2.53541902    -2.99051470     1.21111834     0.07479933
O       2.73540801     3.45277001     7.19109501    -3.57802665     0.76929595     1.43961647
O       0.27518900     1.21458302     2.49141200     1.45005978    -1.84279388     0.29347534
O       2.04061098     0.83166999     6.82422600    -0.69345660     2.78693751    -3.91692337
O       2.69444800     4.69233702     2.19027501     1.55585892     0.89697672    -0.39966605
