# total energy = -19961.24898487 eV

CRYSTAL
PRIMVEC
        7.60600008     0.00000000     0.00000000
        0.00000000     7.60600008     0.00000000
       -1.89786986    -1.89786986     4.85670466
PRIMCOORD
24 1
Ti      3.83612802     6.71993998     1.23526099    -0.12140419     0.84217004     0.20806660
Ti      3.86019701     2.94156700     1.15794598    -1.03388904    -0.68358845     0.54592305
Ti      0.03217599     6.53175799     1.18845299    -0.45453624     1.25295457     0.49591585
Ti      0.00014198     2.82980498     1.27928801     1.17794801    -0.93511288    -1.86666838
Ti      5.71887220     2.71733724     3.60511580    -0.96114042    -0.32188167     0.47904195
Ti      5.65211924    -1.05250376     3.64825581     0.36407631     0.15332625    -0.16912877
Ti      1.89839523     2.93182924     3.63647579     1.18486993     0.66999605    -0.52576457
Ti      1.86396521    -0.85102777     3.64455379    -0.22719793    -0.27425273     0.12173818
O       3.81801799     4.84021502     0.79937801    -0.35552019    -0.40484091    -0.07259101
O       3.72501101     0.99462198     0.89038602     0.52949292     0.86826366    -1.04365924
O       0.01744301     4.67515702     0.76681699     0.26746990    -0.21121980     0.56378400
O      -0.01093301     0.81135499     0.63555198    -0.01694923     0.28443842     2.07577345
O       5.66558521     4.61230822     4.06007181     0.35768121    -0.02298670    -0.53896102
O       5.57628221     0.84138225     4.12296680     0.72773276     1.55618802    -0.27183410
O       1.83679524     4.89602920     3.98363882     0.16629850    -0.74151980     0.54434336
O       1.90969825     1.11471024     4.01570580     0.09171154    -1.85260676     1.27403197
O       3.82065424     2.85869821     3.32129682     0.19795085     0.25442001    -1.23804242
O       3.83156625    -0.76743079     3.23011582    -1.43528005    -0.74097164    -0.17143120
O       0.07635324     2.72067921     3.20746280    -1.41257566     0.36584266     0.20019131
O      -0.07083577    -0.90715978     3.17467979     0.41404264    -0.04640946     0.19133951
O       5.62862102     6.56956500     1.62844398     1.00867474     0.02835234    -0.75112236
O       5.75983301     2.73555798     1.59329301    -1.11700564     0.26754961     0.61029758
O       1.86007999     6.83584901     1.75862100     0.16465762    -0.82687197    -1.11090287
O       1.92247899     2.81422298     1.57439699     0.48289166     0.51876139     0.44965886
