# total energy = -19912.98397882 eV

CRYSTAL
PRIMVEC
        7.20982345     0.00000000     0.00000000
        0.00002361     3.28861380     0.00000000
        0.00000000     0.00000000    10.97278778
PRIMCOORD
24 1
Ti      2.61322810     1.94882951     4.07082601    -0.57918183     0.46060045     0.67874089
Ti      4.59661864     1.33978435     6.90196193     0.57918183    -0.46060045    -0.67874089
Ti      6.21801643     1.33978547     1.41552408    -0.57772247    -0.46068684    -0.67785514
Ti      0.99183032     1.94882849     9.55726397     0.57772247     0.46068684     0.67785514
Ti      2.61321646     0.30452266     1.41556809    -0.57944691     0.46136998    -0.67887330
Ti      4.59663029     2.98409125     9.55721995     0.57944691    -0.46136998     0.67887330
Ti      0.99181867     0.30452143     6.90191791     0.57803408     0.46153221    -0.67764869
Ti      6.21802807     2.98409247     4.07087003    -0.57803408    -0.46153221     0.67764869
O       2.28196287     1.15797681     5.59932965     5.09503104    -0.66632040     1.48884772
O       4.92788387     2.13063699     5.37345828    -5.09503104     0.66632040    -1.48884772
O       1.32300746     1.15799008     0.11297099    -5.09475516    -0.66710922     1.48930512
O       5.88683933     2.13062378    10.85981663     5.09475516     0.66710922    -1.48930512
O       4.92787228     0.48633009     0.11293540    -5.09617724     0.66692590     1.48894516
O       2.28197447     2.80228377    10.85985223     5.09617724    -0.66692590    -1.48894516
O       5.88682774     0.48631682     5.59936525     5.09472868     0.66771291     1.48912617
O       1.32301895     2.80229704     5.37342269    -5.09472868    -0.66771291    -1.48912617
O       0.26196381     2.00032132     2.96402375     0.67893681    -0.41770183     0.55685384
O       6.94788293     1.28829248     8.00876419    -0.67893681     0.41770183    -0.55685384
O       3.86688471     1.28826184     2.52240510     0.67878537     0.41811501    -0.55659056
O       3.34296204     2.00035201     8.45038268    -0.67878537    -0.41811501     0.55659056
O       0.26195222     0.35601442     2.52237009     0.67832977    -0.41760079    -0.55651960
O       6.94789453     2.93259944     8.45041769    -0.67832977     0.41760079     0.55651960
O       3.34295044     0.35604506     8.00879915    -0.67812383    -0.41778025    -0.55688110
O       3.86689630     2.93256880     2.96398874     0.67812383     0.41778025     0.55688110
