# total energy = -19075.68253185 eV

CRYSTAL
PRIMVEC
        7.60600008     0.00000000     0.00000000
        0.00000000     7.60600008     0.00000000
       -1.89786986    -1.89786986     4.85670466
PRIMCOORD
22 1
Ti      3.83366401     6.70762502     1.03485300     0.22552954     0.68334214     0.05393071
Ti      3.89524299     2.96730899     1.26407200     0.48999022    -0.42445227     0.04051160
Ti      0.02740699     6.69529001     1.14434501    -0.71671867    -1.27761326    -0.11119100
Ti      0.01610900     2.73812999     1.11480501    -0.18208816     0.82477549     0.61936021
Ti      5.76731123     2.65254923     3.60829779    -0.38853420     0.87261937     0.41245215
Ti      6.07931525    -1.07490277     3.78088080    -1.20395884    -0.52033697    -2.32980137
Ti      1.92479821     2.86762925     3.57735283     0.05418011     0.48475083    -0.09697228
Ti      1.32501623    -0.70977280     3.85286579     1.68919252    -2.31539598    -1.05495899
O       3.75994301     4.84114399     0.76689103     0.10966479    -0.23134358    -0.24089986
O       3.95413301     1.02678500     0.92842000    -1.04897911    -0.51330860    -0.58032520
O       0.08418099     4.62808099     0.63845600     0.17412366    -0.07502353     0.66649266
O       7.13759403     0.86795002     0.64424600     1.25745606    -0.16082359     1.85799810
O       5.50082720     4.67739422     4.09269082     1.35382053     0.27984000    -0.62791196
O       5.53227022     0.72876021     4.01406281     0.90211662     1.41000352    -0.68870932
O       1.95150722     4.88636621     3.96006382    -0.49491363     0.09802103     1.14505202
O       1.98911320     0.97887822     4.06872179    -0.34702629     0.84959410    -0.14656862
O       3.91120822     2.84246322     3.17532079    -0.94253489    -0.02507572     0.46999449
O       0.02514423     2.83228020     3.19414981     0.38893298    -0.31989909    -0.09924719
O       5.67683902     6.53756402     1.84739800     0.12045880     0.01996360     0.20791182
O       5.77257999     2.89817097     1.53800198     0.10201267     0.24091683     0.44320513
O       1.87067100     6.72275801     1.87126902    -0.46738713     0.39484343     0.34425721
O       1.99005402     2.86062199     1.64791400    -1.07533781    -0.29539724    -0.28458009
