# total energy = -19075.44949250 eV

CRYSTAL
PRIMVEC
        7.60600008     0.00000000     0.00000000
        0.00000000     7.60600008     0.00000000
       -1.89786986    -1.89786986     4.85670466
PRIMCOORD
22 1
Ti      3.93967700     6.60827803     1.19318098    -0.41288641     0.98796244    -1.52969948
Ti      3.76026702     2.87698198     1.23975599     0.03640683    -1.09300541     1.01554267
Ti     -0.05315099     6.64644800     1.10995902     0.75440206    -0.22241413     0.42575916
Ti     -0.12609902     2.80847702     1.08033901     0.05508899    -0.06371093     0.12810295
Ti      5.77160820     2.78096822     3.62695780    -1.56221212     0.28891420     0.08159785
Ti     -1.32451875    -1.00441975     3.73254882    -2.69246177     0.10840855     0.06767197
Ti      1.84448123     2.89136020     3.63189582     1.37910297     0.08079900    -0.61875369
Ti      1.54672620    -0.81543780     3.66919879     0.90745911    -0.83083713     0.70528188
O       3.76148402     4.73047800     0.94608198    -0.26166589     1.62547259    -0.88894948
O       3.70847501     0.96677800     0.81403701     0.10976686    -0.67095456     0.51297461
O      -0.07167499     4.68718299     0.73715799     0.26479081    -0.38064836    -0.20512217
O       7.15736001     0.85417601     0.58650302     1.28048030     2.03005742     1.54036827
O       5.62350425     4.77903123     4.15783879     1.26903117    -0.72700154    -3.06316562
O       5.51189521     0.84238822     3.88141379     1.62758295    -0.02200120     0.81885655
O       2.17309024     4.82507822     4.07571879    -0.85062331    -0.39772898     0.78431094
O       2.06740524     0.97868724     4.07240979    -0.85335511     0.10739502    -0.25618918
O       3.85503325     2.84230123     3.21443683    -1.19747631     0.16522275    -0.10013833
O       0.01497122     3.00318022     3.23209680    -0.24940893    -0.48121093     0.28676398
O       5.81691700     6.50310399     1.84128801    -1.29233694     0.08531772     0.75787048
O       5.66722498     2.97555902     1.68696802     0.82237536    -0.50274984    -0.67242909
O       1.77602601     6.67331698     1.77385199     0.74883433     0.07689298     0.25700705
O       1.80675703     2.82114102     1.64795501     0.11710505    -0.16417940    -0.04766107
