# total energy = -19074.97352967 eV

CRYSTAL
PRIMVEC
        5.17600016     0.00000000     0.00000000
        0.00000000     5.50899976     0.00000000
        0.00000000     0.00000000     9.26300011
PRIMCOORD
22 1
Ti      1.90052999     3.21967902     3.36214999    -0.87571575     1.28420634    -0.75391637
Ti      3.33833601     2.22795100     5.92100500    -0.41100051     0.68359951    -0.61994385
Ti      4.48632102     2.24375398     1.27007398     0.50282440    -0.08959886    -1.98195078
Ti      0.67467602     3.33372899     8.05569697     0.70260794    -0.64996226     1.17166731
Ti      1.87763497     0.56386598     1.27192499     0.54039852    -0.72778624    -1.36924998
Ti      3.30741602     4.99535302     8.05052099    -0.37405143     0.39449325     1.26754327
Ti      0.71833700     0.52165600     5.87072803    -0.19150278     0.00779019    -1.38681062
Ti      4.46941301     4.92791700     3.48116799    -0.39610121     0.39312670    -0.05943827
O       3.30166799     3.56403899     4.42717101     2.05295413    -0.24713787     2.33086477
O       0.88002198     1.90574900     0.02128399    -0.48596927     0.38859590     0.44498150
O       4.26532601     3.73141300     9.13553501     0.22668705    -0.25710758     0.09717642
O       3.44774600     0.84276499     0.24830002     0.71736042     0.04197765    -2.10717460
O       1.77971702     4.65715901     8.96173902    -1.80740135     0.77356115     1.64436146
O       4.26810700     0.89206801     4.66404202     0.81596457    -0.75894365     0.02510195
O       0.97409800     4.59302299     4.44350200    -1.20839759     1.76961280     1.86879906
O       0.12391098     3.36209802     2.59172501    -0.40570455    -0.70928072    -1.05204515
O       5.00389701     2.28371401     6.66883897     1.10964868    -1.09230324    -0.13183285
O       2.76329100     2.07800000     2.16896398    -0.35382352    -0.23708717     0.32993719
O       2.36149200     3.22013998     7.21009702     1.10911107     0.34815347    -1.60042978
O       0.12957598     0.63829900     1.98428499    -0.22466719    -0.73165036     1.76577594
O       2.51103897     0.63634300     6.63252598    -0.85888067    -0.58562553    -0.02127846
O       2.76214199     4.81314898     2.40213700    -0.18434148     0.00136628     0.13786235
