# total energy = -19517.68167797 eV

CRYSTAL
PRIMVEC
        5.17600016     0.00000000     0.00000000
        0.00000000     5.50899976     0.00000000
        0.00000000     0.00000000     9.26300011
PRIMCOORD
23 1
Ti      1.83266099     3.20964597     3.42557299     0.16528471     0.01298330     2.18421825
Ti      3.44892400     2.26604801     5.86849998     0.00799819    -0.03138547    -2.51392842
Ti      4.26909799     2.18701300     1.48038902     0.83028485    -1.00998009    -1.58843275
Ti      0.78842499     3.47760699     7.75218202     0.31494277    -0.36972169     2.24522567
Ti      1.98184199     0.15537501     1.50354402    -0.40071763     0.70405830    -2.89690183
Ti      3.28103998     5.09050099     7.96806702    -0.70577785     1.59705778     2.11651851
Ti      0.78983398     0.56193898     5.94682699    -0.04561884    -0.39874200    -3.17962172
Ti      4.44429101     4.92188199     3.33927599     1.54964430     0.74810979     2.56395439
O       1.79994202     1.92056702     4.76552499    -0.12638237    -0.28781042     0.63337607
O       3.68144602     3.60071098     4.48387902    -0.73832726    -0.50680113     0.85407708
O       4.84367902     2.97436001     9.17467301    -0.07356212     0.43736564     0.21878888
O       3.61114598     0.67106602     0.21758901    -0.54333806    -0.29702912     0.28447159
O       1.62776399     4.81316099     8.98443602     0.00909091    -0.34614235     0.97805186
O       4.34017300     0.85991298     4.79097503    -0.09771430    -0.35830521    -0.33915434
O       0.99942199     4.73196599     4.33291698     0.62856168     0.22215085     0.69903359
O       0.20930098     3.38034998     2.51806401    -0.15083408    -0.42663076    -0.91261186
O       5.17114702     2.01422700     6.80470899    -0.37668989     0.43179662     0.27631810
O       2.49730000     1.89629900     2.10008299     0.07357780    -0.11729480     0.09019459
O       2.64248602     3.55625898     7.07380102    -0.95667159    -1.42959071    -0.11919124
O       0.17947703     0.67516900     2.05144599     0.33776209    -0.07716089     0.07667495
O       4.92519999     4.74738400     7.03218298     0.33750652     0.93141383    -0.79824324
O       2.47217001     0.83263199     6.93367002    -0.07972762     0.27614661    -0.46954635
O       2.95740999     4.31726000     2.24895098     0.04070752     0.29551139    -0.40327177
