# total energy = -4983.36000411 eV

CRYSTAL
PRIMVEC
        3.50840243     0.00000000     0.00000000
        1.50269998     3.17029657     0.00000000
       -2.50558442    -1.58516930     4.60123424
PRIMCOORD
6 1
Ti      1.12693636     2.37784445     1.15030851     0.00059213    -0.00059213     0.00000000
Ti      1.37858187    -0.79271699     3.45092544    -0.00059213     0.00059213     0.00000000
O       0.37571144     0.79256998     0.74950340     0.00086929     0.00098833    -2.21867105
O       2.12980667     0.79255736     3.85173060    -0.00086929    -0.00098833     2.21867105
O      -0.37567982    -0.79255002     3.05012038     0.00098833     0.00086929    -2.21867105
O       2.88119787     2.37767733     1.55111362    -0.00098833    -0.00086929     2.21867105
