# total energy = -4988.18907126 eV

CRYSTAL
PRIMVEC
        3.83967893     0.00000000     0.00000000
        1.47679276     3.54432185     0.00000000
       -2.65827149    -1.77218469     5.00534016
PRIMCOORD
6 1
Ti      1.10749078     2.65837784     1.25133478     0.00070423    -0.00070423    -0.00000000
Ti      1.55070954    -0.88624065     3.75400470    -0.00070423     0.00070423     0.00000000
O       0.36923811     0.88607582     0.81532889    -0.00028025    -0.00028899    -1.70346009
O       2.28896203     0.88606130     4.19001064     0.00028025     0.00028899     1.70346009
O      -0.36920494    -0.88605371     3.31799886    -0.00028899    -0.00028025    -1.70346009
O       3.02740502     2.65819079     1.68734072     0.00028899     0.00028025     1.70346009
