# total energy = -19958.40262645 eV

CRYSTAL
PRIMVEC
        7.60600008     0.00000000     0.00000000
        0.00000000     7.60600008     0.00000000
       -1.89786986    -1.89786986     4.85670466
PRIMCOORD
24 1
Ti      3.91812001     6.65564198     1.06491799    -0.98510414    -1.83235597     1.15132860
Ti      3.89262399     2.58850899     1.17997801    -0.05576056     2.20308836     1.83807796
Ti     -0.10573300     6.72342202     1.16326198     0.63354474     2.69183879     0.91201125
Ti     -0.06754799     3.00604201     1.27826501    -0.44872863    -2.67100359    -0.50494608
Ti      5.60791024     2.91944623     3.76890081    -1.16951196     0.64680366    -1.74744808
Ti      5.72473220    -0.78045278     3.70238979     0.37124892    -0.67298727     0.53666656
Ti      1.69608024     2.64390824     3.66093479     1.45830017     1.62921792     0.33876816
Ti      2.05175625    -0.99170875     3.58807481     0.42481556    -0.37926588    -2.23932498
O       3.90212198     4.68162801     0.66237799    -0.27796232     0.80870378     1.37960536
O       4.24228098     0.88673798     0.64249199    -1.04936401     0.33599780     0.83354116
O      -0.16529799     4.90931800     0.79322199     0.43938267    -1.56073013     1.05799443
O       7.30316300     1.07100898     0.67416298     1.02970586    -0.52724835     2.63960219
O       5.46694223     4.95095023     4.10053979     0.83963390    -2.44195061    -0.05575156
O       5.47726225     1.05283222     4.18481582     1.04757143     1.39984818    -0.08017705
O       2.28809422     4.80769422     4.03470184    -1.49441210    -1.14723077    -0.85577118
O       2.02464121     0.94066622     4.14399980    -0.60631674    -1.91827687    -0.96727045
O       3.90746524     2.89643025     3.11046482    -0.95205826    -0.19586337     0.01317357
O       3.87430821    -0.84464177     3.19555584    -2.37691402     0.35722612    -0.74471131
O      -0.14045878     2.74878921     3.30550982     0.74165941     0.87060722     0.12746660
O      -0.03194177    -0.91808078     3.25137282     2.01835530     0.15594981    -0.12829347
O       5.68077800     6.75440101     1.84327698     0.78353344    -0.49514323    -3.16210479
O       5.74783000     2.73797500     1.55453300    -0.20910584     1.08102561     0.76498215
O       1.98939398     6.66302199     1.39788600    -0.36877963     0.28321175     0.99902307
O       1.83705798     2.31868500     1.83388397     0.20626683     1.37853707    -2.10644210
