# total energy = -19957.18001461 eV

CRYSTAL
PRIMVEC
        5.93400000     0.00000000     0.00000000
        0.00000000     9.29699974     0.00000000
        0.00000000     0.00000000     4.64899994
PRIMCOORD
24 1
Ti      4.44791899     7.12326999     2.41473501    -0.14284489     1.53552097    -2.72820243
Ti      4.52486099     2.31641399     2.26930202    -2.51462878     1.38627095    -0.70324685
Ti      1.48411797     6.63804499     2.57135100     0.69183578     2.75553867    -2.52499393
Ti      1.40355598     2.38804802     2.44775498     2.36503038    -0.48016886    -1.97343451
Ti      3.08429500     4.49679100     0.00942602     0.43467138     2.66743876     1.45626849
Ti      2.90323002     0.24418000     4.46293699    -2.41374020    -3.46587663     0.67107643
Ti      0.04453000     4.46540798     4.63550799    -0.53252991     3.83616242     1.12164623
Ti      5.79552098     0.25166601     4.61285301     1.81487092    -3.45976152     1.46284074
O       4.52509299     5.36431699     0.82866803     0.07848835     0.29622230     0.47702646
O       4.31365201     1.26638799     0.60427602     1.07239261    -1.13618171     1.31252757
O       1.52900898     5.43407800     0.97301398    -0.34177610    -0.77686682    -0.42431831
O       1.33948298     1.16885401     0.84986999     0.88521958    -1.32859105    -1.42251246
O       4.46025401     8.75456899     3.52046702    -0.33745459    -1.73892899     1.46680076
O       4.52601698     3.47590003     3.89970703     0.01357003    -0.23430446    -2.04780575
O       1.49030300     8.29018102     3.73765999     0.53294463     2.47200322     1.07136829
O       1.57257201     3.67506297     3.77366902    -0.60868525    -0.75985871    -1.21614099
O       3.10220701     6.04753900     3.23709397    -0.23363469    -1.86639790     1.46565764
O       3.06168500     1.34078100     3.01606701    -1.90388229     1.06593631    -0.48334598
O       5.89066901     6.14152501     3.41791501    -0.49838745    -1.72492907     0.20198003
O       5.87497801     1.33658002     3.07562501     1.26164902     0.65405058    -0.27823795
O       2.88540198     7.75387099     1.49502802     1.55026188     0.56947385    -0.15558291
O       2.97636501     3.28484502     1.39711203    -0.26704567    -1.04162858     1.73953474
O       0.02819398     7.74615998     1.39782298    -1.22555946     0.75593598     0.20410170
O       0.02654501     3.19926600     1.40640999     0.31923523     0.01894055     1.30699275
