# total energy = -19517.18676717 eV

CRYSTAL
PRIMVEC
        5.93400000     0.00000000     0.00000000
        0.00000000     9.29699974     0.00000000
        0.00000000     0.00000000     4.64899994
PRIMCOORD
23 1
Ti      4.45578701     7.02549899     2.26760500    -1.06766975     0.89969592     0.25485967
Ti      4.45420398     2.36079899     2.30568100     1.74830735    -1.87175737     0.71217604
Ti      1.32573797     6.98934100     2.13051402     0.98949353     0.77289009     0.00180800
Ti      1.48875298     2.32299600     2.35267602    -1.06015879    -0.91668346     0.62348195
Ti      2.98039999     4.52930402     0.21958501     1.05711151    -0.10840803    -0.70734854
Ti      3.01446699     0.02687601     4.62419301     0.31756118     0.51128436     0.52229718
Ti      0.01086898     4.61466999     0.02461902    -0.40134627    -0.40081019    -0.20979078
Ti      0.08025698     9.23065198     4.57447702    -0.99230735     1.20390330    -0.64727829
O       4.64709401     5.56717798     1.07128299    -1.72931846    -0.10260814    -1.04218368
O       4.41717300     0.96660099     0.90045002    -0.26956947    -0.12245089    -0.50294782
O       1.54986602     5.39467599     1.02309902    -0.04317835     2.05351720     0.44869675
O       1.40365102     0.81864901     0.83896798     0.27873751     1.48110972     0.97395378
O       4.31841202     8.35645698     3.77022503     0.59784161    -0.71366883    -0.80981732
O       4.53819801     3.65744301     3.91403000    -0.77573605     0.93057025    -0.79066131
O       1.39356098     8.45923400     3.56098998     0.61704853    -0.62865810     0.26574444
O       1.53176901     3.66753998     3.84993499     0.60447609     0.35984119    -0.65772443
O       2.99100099     1.41887799     3.18424499    -0.82218227     0.31326410    -0.00077390
O       0.00942301     6.27776799     3.20628998     0.16727963    -1.56168890     1.24144245
O       5.82667598     1.45370102     3.18795002     1.80178271    -0.41994126     0.18655803
O       2.93553602     7.97711902     1.39721098    -0.15544484    -1.41700438     0.39872863
O       3.10841902     3.25233401     1.46318600    -2.40640099     0.45162498    -0.00809924
O       5.79886300     7.92431798     1.33732801     0.76645976     0.06995152    -0.27088202
O       5.93109699     3.38226402     1.51980299     0.77721264    -0.78397258     0.01776042
