# total energy = -19960.12291281 eV

CRYSTAL
PRIMVEC
        7.60600008     0.00000000     0.00000000
        0.00000000     7.60600008     0.00000000
       -1.89786986    -1.89786986     4.85670466
PRIMCOORD
24 1
Ti      3.94139900     6.56795699     1.23433102    -1.89722853     0.01599561    -1.11994647
Ti      3.72222701     2.73752202     1.21518602    -0.04093198     0.09117367    -0.51397477
Ti      0.11183600     6.85262700     1.12218799     1.12346503    -0.03399514     1.98738275
Ti     -0.07852302     2.90558702     1.27348098    -0.04815627     0.55563283    -0.58007066
Ti      5.62863023     3.06080122     3.69760481     0.91608028    -3.34743358    -0.66037138
Ti      5.73523124    -0.95176180     3.54869783     0.55098401     4.20032486     0.35249529
Ti      1.92935623     2.71405624     3.65824784    -1.36119703     0.20077006     0.04485960
Ti      1.86318923    -1.05446976     3.64230283    -0.19876512    -0.30535667    -0.32467131
O       3.60043798     4.61899200     0.88343200     1.15914835     1.28016997    -0.94324220
O       3.62076902     0.87012901     0.79794003     0.74479230    -1.39098944    -0.51983509
O       0.03875599     4.79808701     0.73370399    -0.57663926     0.96215678     0.53881112
O       0.18739003     1.13895301     0.85270802    -0.52266484    -3.42947082    -0.81284994
O       5.93194722     4.85956725     4.02039479    -0.38576512     0.29304622     0.19998819
O       5.73025221     0.93398620     4.13099982    -0.71219147    -0.23564246    -0.56716423
O       1.73940223     4.58838121     4.04354883     0.69130022     0.87695116     0.36698629
O       1.82259821     0.79758622     4.08502881     0.60449177     0.89400067    -0.25323859
O       3.73522524     2.79986424     3.36852483     0.28847582     0.15961003    -0.10025661
O       3.86200024    -1.09360580     3.17324980     0.54805810    -0.19635059     0.40209240
O      -0.15510275     2.76763120     3.24637982     0.88397979     0.31645689    -0.67127466
O       0.05036122    -0.82445175     3.10512982    -0.51391718    -0.71365828    -0.13671692
O       5.77777598    -0.55769101     1.51478300    -0.25358928    -1.47019796     0.43912710
O       5.52831002     2.87438499     1.60752301     2.01126522     0.16406241     0.63072604
O       1.99417198     6.58178201     1.64217200    -1.15133451     0.35963499     0.04971256
O       1.92823300     2.69583899     1.56721103    -1.85966007     0.75310905     2.19143123
