# total energy = -19515.74644307 eV

CRYSTAL
PRIMVEC
        5.17600016     0.00000000     0.00000000
        0.00000000     5.50899976     0.00000000
        0.00000000     0.00000000     9.26300011
PRIMCOORD
23 1
Ti      2.02222102     3.15237000     3.37461698    -1.06205446     1.56798862     3.31830245
Ti      3.21744298     2.27961802     5.96593199     2.39805158     0.81768156    -2.58391721
Ti      4.40881697     2.11972298     1.57682602     0.48348559     0.27019785    -3.00683710
Ti      0.84854001     3.44542698     7.69955100    -2.77881822    -0.58638452     2.53026753
Ti      1.97221800     0.24462197     1.46900599     1.99763965    -1.02670358    -2.10754690
Ti      3.16204701     5.23490902     7.78354699     0.88059699    -1.02576281     3.74537827
Ti      0.70237199     0.57272298     5.89745402    -1.77235617    -0.52760136    -3.58001771
Ti      4.56285301     4.85437702     3.42704702    -0.02567736     0.61363462     3.15441025
O       1.77082197     1.95782702     4.89399398    -1.10552103    -0.86549535    -1.74412673
O       3.63738301     3.39884901     4.48187799    -0.20448814     1.09716572    -0.46788901
O       4.83820298     2.95548002     9.14368498     0.42906920    -0.91213261     0.90304813
O       3.40012899     0.72358401     0.19407898    -0.34642825     0.54150435     0.48050876
O       1.86133801     4.42143399     9.00672798    -0.02166232     0.70434652     0.63609476
O       4.30200101     0.68109398     4.79982599    -0.65604524    -0.39320795    -0.16079222
O       1.02045102     4.66287598     4.31520398     0.86506032     0.89634449     1.80099750
O       0.20784601     3.33514099     2.61567399     0.91198426    -1.70305077    -1.76457626
O       5.09695097     2.24903898     6.42629402    -0.12965307     0.09045479     1.88602211
O       2.78371898     1.78238598     2.50045300    -0.07083855    -2.16018563    -1.98489572
O       2.42225198     3.80387699     6.74060901     0.82834033    -0.14899831    -0.40281540
O       0.27077799     0.60916001     2.22622599    -0.17873930     1.08039106    -1.57786577
O       4.94908398     4.85261200     7.17798300     0.04029023     0.99431358    -0.27783994
O       2.21320299     1.00823999     6.96532000     0.01710813     0.50052995     1.73406780
O       3.00320202     4.44872302     2.29533903    -0.49934441     0.17496981    -0.52997783
