# total energy = -39033.41407887 eV

CRYSTAL
PRIMVEC
        5.93200024     0.00000000     0.00000000
        0.00000000     9.29399984     0.00000000
        0.00000000     0.00000000     9.29399984
PRIMCOORD
46 1
Ti      4.39665802     7.15780399     6.97903501    -0.82881778    -1.58880247    -1.76666786
Ti      4.43657603     6.79181802     2.41571701     0.40772826     1.45863879     1.18500775
Ti      4.48828098     2.19071502     6.96940599    -0.92855091    -1.03608142     0.01828055
Ti      4.54615302     2.64622799     2.07350401    -0.39736645    -1.58772133     0.27639858
Ti      1.35629198     6.86484898     7.07565801     0.61546293     0.09136778    -1.17967039
Ti      1.49604600     7.01179298     2.28202403    -1.19399298    -0.12782424    -0.51927201
Ti      1.46592200     2.58130202     6.91392398     0.29610403    -1.69149520     0.18711005
Ti      1.50659599     2.06913999     2.60373098     0.30794937     0.66530019    -1.30109515
Ti      2.94499999     4.63496198     4.77149400     0.76005926     1.24129101     0.11386572
Ti      2.95910902     4.86338701     9.22616201    -0.25640490    -0.10814887    -0.65186360
Ti      2.82536597     9.24304298     4.60938701     1.80511898     0.14801564     1.32643184
Ti      3.00940800     0.06555199     9.24196600     0.29460457     2.12029160     1.44778924
Ti      0.01027699     4.58026199     4.64863598    -0.70708140     1.23416494    -0.20028361
Ti      0.00182201     4.65676298     0.04306598     0.16810136    -0.53906309    -0.25477739
Ti      5.90538998     9.09263101     4.73294503    -2.03629055     0.18479554     0.66734550
Ti      0.12546502     9.19890499     9.10415200    -1.57470228     1.32797810     2.86673918
O       4.42749201     5.57756700     5.73189901    -0.27557300    -1.01545603    -1.49263958
O       4.41986799     5.67697200     0.83164698     0.50304989    -1.04003938     0.62628754
O       4.49098201     0.78952198     5.50436200    -0.51250333     1.15054261     0.31718940
O       4.49428900     0.96928000     0.74202202    -0.92670511     0.80860376     0.85466149
O       1.41710101     5.59239799     5.61846801     0.65402178    -1.09138767    -0.77479374
O       1.37109698     5.81969899     0.70847499     0.48319454    -1.47967890     0.72064423
O       1.46302597     0.83587002     5.66264601     0.46925993    -0.14098649    -2.19188580
O       1.34952502     0.82209601     1.04999001     1.23672268    -0.05742947    -0.39234535
O       4.36394798     8.57926002     8.27920599     0.70764910    -1.77698904    -0.51456561
O       4.43900098     7.99565599     4.05842199     0.53433508     1.99859996    -1.93729327
O       4.39223902     3.83605298     8.49316701     0.04354988    -1.35452681     0.05108321
O       4.52289002     3.88195800     3.52773198    -0.36253828     0.16859604     0.44902045
O       1.52747701     8.42144900     8.29016499     0.86919388    -0.55006356     0.13473897
O       1.33808400     8.36657400     3.69046299     1.42282382     1.01457620    -0.33703935
O       1.53519702     3.75652701     8.35865598    -0.24927291     0.38142124     0.51222616
O       1.48777999     3.58336799     3.96136702     0.00021083    -0.08867790    -0.76121651
O       2.85985198     6.00530198     7.81229798     1.45492534     0.88248546     0.30669158
O       2.95632999     6.05033301     3.38793500    -0.61325487    -0.57309936    -0.94664840
O       2.87509398     1.43981102     7.82853600     0.37073187    -0.00490772     0.66595376
O       3.27710999     1.65103498     3.17292001    -1.11242625    -1.25822765    -0.18493489
O       5.90958699     5.93162299     7.77345902    -0.65560378     0.64250478     0.93471385
O       0.07608002     6.09185601     3.27466699    -0.06402435    -0.85909742    -0.44274439
O       0.06996602     1.44485900     7.78462699    -0.01375078     0.07800961     0.45533920
O       2.98478602     7.84946898     5.93305600    -0.51798338     0.07610931     1.32868824
O       2.97401398     7.66137901     1.44356702     0.82192439     2.09508373    -0.51069481
O       3.04503999     3.06004301     6.00065602    -0.26115142     1.47516276    -0.46882875
O       0.06482501     7.97190202     6.19868298    -0.61230536    -0.72499531     0.32168138
O       5.89224099     7.95223197     1.35886601    -0.08395632    -0.83496375     0.35834815
O       5.75694502     3.24662700     5.99636000     0.78164830    -0.37005773     0.80173737
O       0.37298498     3.20523698     1.46701301    -0.82411317     0.65618151    -0.09871317
