# total energy = -4990.38018688 eV

CRYSTAL
PRIMVEC
        3.89944482     0.00000000     0.00000000
        0.19484212     3.89457397     0.00000000
       -2.04717809    -1.94731992     4.97811577
PRIMCOORD
6 1
Ti      0.14597406     2.92107837     1.24452881     0.00008382    -0.00008382     0.00000000
Ti      1.90113429    -0.97382478     3.73358669    -0.00008382     0.00008382     0.00000000
O       0.04875155     0.97363712     0.81089435    -0.00038284    -0.00067337    -0.37739180
O       1.99835663     0.97361636     4.16722120     0.00038284     0.00067337     0.37739180
O      -0.04873232    -0.97361883     3.29995224    -0.00067337    -0.00038284    -0.37739180
O       2.09584050     2.92087225     1.67816337     0.00067337     0.00038284     0.37739180
