# total energy = -4988.28944648 eV

CRYSTAL
PRIMVEC
        3.25830179     0.00000000     0.00000000
        0.00000000     3.77346103     0.00000000
        0.00000000    -0.00005953     4.54155055
PRIMCOORD
6 1
Ti      1.62915095     1.88670060     2.27077527     0.00000000     0.00000000     0.00000000
Ti      0.00000000     0.00000000     0.00000000     0.00000000     0.00000000     0.00000000
O       1.62915095     0.73538032     0.88508130     0.00000000    -0.52455383    -0.65193122
O       1.62915095     3.03802083     3.65646920     0.00000000     0.52455383     0.65193122
O       0.00000000     1.15129622     3.15585758    -0.00000000     0.52432578    -0.65178595
O       0.00000000     2.62210497     1.38569297    -0.00000000    -0.52432578     0.65178595
