# total energy = -4983.53343023 eV

CRYSTAL
PRIMVEC
        4.24550891     0.00000000     0.00000000
        0.00000000     3.20285167     0.00000000
        0.00000000    -0.00008468     5.61534304
PRIMCOORD
6 1
Ti      2.12275440     1.60138333     2.80767158     0.00000000     0.00000000     0.00000000
Ti      0.00000000     0.00000000     0.00000000     0.00000000     0.00000000     0.00000000
O       2.12275440     0.62417205     1.09434768     0.00000000    -0.08692260     1.96253046
O       2.12275440     2.57859460     4.52099547     0.00000000     0.08692260    -1.96253046
O       0.00000000     0.97717761     3.90202041     0.00000000     0.08442657     1.96093663
O       0.00000000     2.22558904     1.71332274     0.00000000    -0.08442657    -1.96093663
