# total energy = -19072.58260852 eV

CRYSTAL
PRIMVEC
        5.93400000     0.00000000     0.00000000
        0.00000000     9.29699974     0.00000000
        0.00000000     0.00000000     4.64899994
PRIMCOORD
22 1
Ti      4.43578501     6.68081198     2.25573000    -1.26247923    -0.05017690     0.54010053
Ti      4.39818803     2.45834599     2.07377600     1.38566288    -0.39391603     0.00277834
Ti      1.43348799     7.28727901     2.70847501     0.83165654    -1.62560629    -0.83523963
Ti      1.60409600     2.41527102     2.13511802    -1.88660498     0.80596246    -0.24936342
Ti      3.06968801     4.55704799     4.48187302    -0.99963577     0.69836330    -1.13988333
Ti      3.03336200     0.23987398     0.03833699     0.32565630    -0.30921409     0.10644551
Ti      5.80168600     4.48725099     4.35162598     2.16434156    -1.11907949    -0.44608631
Ti      5.92509702     9.18141399     0.35412102    -1.21675265     0.77299885     0.37018449
O       4.60222999     5.15755801     0.85603803    -1.29456121     2.53945768     2.77825849
O       4.32316397     0.65847901     1.34622301     1.14104366     0.65216442    -0.67279727
O       1.52435799     0.62714399     1.39649501    -0.38473745     0.74287117    -0.98965037
O       4.46898400     8.49197800     3.98765401    -0.44213041     0.84245517    -0.72002382
O       4.44741098     4.12800801     3.21050202    -0.92588287    -1.74557169    -0.91639241
O       1.48883400     8.39099998     4.02715900     0.32644435     2.33717221     0.77242164
O       1.47011700     3.91663001     3.45136800     0.58600682    -0.42083626    -0.21199370
O       2.91403603     6.21135699     3.62004902    -0.29590169    -0.14446237    -0.62138419
O       2.98254998     1.83396499     3.11649998     0.94186331    -2.23434116     3.73287679
O       5.90996800     6.23817299     3.52169799     0.18861877    -0.15324218    -0.92163155
O       2.86888599     7.68539900     1.62558002     1.12894611    -0.41726269    -0.71906866
O       3.02197099     2.93324400     0.94301100    -0.80009546     1.10526907    -1.05651785
O       5.85348902     7.82514101     1.50023602     0.10598400    -2.08051380     1.34215954
O       0.00634002     2.95028599     1.01712900     0.38255767     0.19750888    -0.14519385
