# total energy = -19960.04827590 eV

CRYSTAL
PRIMVEC
        7.60600008     0.00000000     0.00000000
        0.00000000     7.60600008     0.00000000
       -1.89786986    -1.89786986     4.85670466
PRIMCOORD
24 1
Ti      3.75437601     6.52183401     1.27801000    -0.34128965     0.33443354    -0.83372088
Ti      3.75501499     2.79623397     1.26664099    -0.48590243    -0.29272123    -0.65001112
Ti      0.05878799     6.74870399     1.15392899    -0.55653220    -0.55317279     1.22103406
Ti     -0.04276699     2.93331999     1.14230000     1.02289475     0.87508506     0.22159626
Ti      5.73295324     3.01950322     3.57005182     0.80418326    -0.67836371     1.75693212
Ti      5.71143424    -0.92661979     3.57047580     2.13153890     0.41036904     0.82347477
Ti      1.87943021     2.74563225     3.62460582    -1.13903460     0.12213542    -0.16310365
Ti      1.91624523    -1.10395577     3.65408380    -1.84946949     0.29777988     0.28027580
O       3.51251798     4.70354097     0.81031801     1.40399485    -0.27073238    -0.45769664
O       3.66456701     0.90615900     1.05765498     0.83886051    -0.77955825    -1.03891607
O       0.11415798     4.88950799     0.74322199    -0.67089337    -1.28986406     0.33873937
O       0.12182697     1.04021700     0.66064700    -0.75503943     0.16411306     0.90694772
O      -1.46251479     4.77954824     4.18006079    -1.18929275     1.16243808    -2.27458022
O       5.73723423     1.09445921     4.11558282    -0.65083644    -0.82064295    -1.53919225
O       1.57246623     4.58874121     4.13090679     1.44689758     1.85791763     0.34583793
O       1.91911824     0.77785225     4.01660979     0.51635690     0.98111996     0.72278750
O       3.74231622     2.97544922     3.18000480     0.61603655    -0.14337634     0.97721985
O       3.84403223    -1.25933279     3.22291181    -0.45867109     0.02994616     0.38825446
O      -0.03775875     2.86180221     3.18487582     1.28772053    -0.97607160    -0.34492853
O       0.00743224    -0.93519876     3.14505883     0.02044208     0.33867252     1.45736558
O       5.81896200     6.61929698     1.66375201    -2.48318521     0.23051620    -1.18206435
O       5.75662900     3.16671398     1.69169299    -1.36142997    -0.48832826    -1.56420344
O       1.80842901     6.59506902     1.76885598     3.03694601     0.09670565    -0.06825819
O       1.93000802     2.94381399     1.59533002    -1.18429529    -0.60840114     0.67621015
