# total energy = -19074.74131306 eV

CRYSTAL
PRIMVEC
        5.17600016     0.00000000     0.00000000
        0.00000000     5.50899976     0.00000000
        0.00000000     0.00000000     9.26300011
PRIMCOORD
22 1
Ti      1.82011399     3.37571502     3.29873101     0.56783271     1.12817375    -0.14693243
Ti      3.60126698     2.30847802     5.89176399    -0.94531219    -0.29917367     0.55957690
Ti      4.35358098     2.23584299     1.30057200     0.90146304    -0.55337000    -1.37771457
Ti      0.71368702     3.21880000     8.13911103     0.91972277     0.36742980     0.39026198
Ti      1.84433798     0.57099199     1.23869599    -0.22219919    -0.43131943    -1.18998489
Ti      3.23660200     5.01242798     7.97880900     0.05934982     0.10061707     0.31313220
Ti      0.55832100     0.16149299     6.00750801     1.68775502     2.05698459    -0.90266169
Ti      4.42772099     4.94120998     3.45660501    -0.25157894     0.68343444    -0.20690600
O       3.33155899     3.62936598     4.50004602     0.69399397    -1.18170465     1.34889224
O       0.96680699     1.98080401     0.29959799    -0.56167929     0.31572104    -0.98327223
O       4.35294798     3.73642600     9.04802100    -0.27040842    -0.55768020     0.63445542
O       3.45766998     0.89761897     0.14610600    -0.12743883     0.12505850    -0.59122771
O       1.63685901     4.69013702     8.94686401    -0.39898394     1.48436268     1.36269572
O       4.46747902     0.88372299     4.71510000    -0.93022984     0.30791954     0.25662576
O       0.97323502     4.82403098     4.31715501    -0.02157645    -1.14332089     1.88150802
O       0.16533699     3.54482700     2.40421301    -0.69324217    -1.25085269    -0.03014182
O       0.15170998     2.30227903     6.53028000     0.19194706    -0.95335512     0.46020270
O       2.73689003     2.00824502     2.32621599    -0.12286792    -0.38088105     0.24561655
O       2.61478899     3.33945702     7.28307898    -0.36294708    -0.81163483    -1.81770325
O       0.01405400     0.58978000     2.03336401     0.39248547     0.51636692     0.66952734
O       2.46570499     0.66997401     6.48843800    -0.52993284    -0.13805389     0.32558406
O       2.71032602     4.74643301     2.43631698     0.02384750     0.61527756    -1.20153455
