# total energy = -19960.74193466 eV

CRYSTAL
PRIMVEC
        7.60600008     0.00000000     0.00000000
        0.00000000     7.60600008     0.00000000
       -1.89786986    -1.89786986     4.85670466
PRIMCOORD
24 1
Ti      3.78430903     6.67371899     1.17932902     0.00275879     1.20827212     0.87082088
Ti      3.81253301     2.97414998     1.23472399    -0.58244790    -0.96407817    -0.01083000
Ti      0.02912301     6.65689502     1.17568400     0.17339938     0.16566421     0.99360601
Ti     -0.04331998     2.80159502     1.25618302     0.42045317    -0.07839451    -1.86830849
Ti      5.79747423     2.78525122     3.74399382    -2.52602597    -0.82358301    -0.06095239
Ti      5.76922924    -1.05795576     3.64043584    -1.23559782     1.08748679    -1.57494577
Ti      1.77847520     2.81750023     3.57984779     2.41094824     0.45685255     0.67642330
Ti      1.88157724    -0.93112579     3.71134882     1.40256918    -0.07700714    -0.24450069
O       3.78477798     4.87493402     0.69877602     0.04675347    -1.89717016    -0.17172739
O       3.63512999     1.00395698     0.83744200     0.72591808     0.55843250    -0.26515308
O       0.10277702     4.79233898     0.88119998    -0.81340273    -1.05888429    -1.05247684
O      -0.04748101     0.96270598     0.66442601     0.28885943    -0.60149284     1.66043395
O       5.87579125     4.67678022     4.00912580     0.00241272    -0.03582576     0.15783494
O       5.74691722     0.83560321     4.00449380    -0.36478568     2.20929783     0.71865420
O       1.76275123     4.84121025     4.07020582     0.01582232    -1.25604427    -0.44626217
O       1.87193124     0.97264324     4.06881779     0.28848997     1.09689549    -0.05948121
O       3.68448625     2.79871423     3.14617979     0.76511842     0.34576877     0.35240787
O       3.87164121    -1.07072180     3.33926381    -0.30037361     0.13056452    -0.74973396
O      -0.08970078     2.61566425     3.29207380     1.72037461     0.30666124    -1.26910110
O       0.13773325    -0.82633779     3.14512980    -2.47954658    -0.30756164    -0.30266883
O       5.66434001     6.65167601     1.55805499     1.40471348     0.04217074     0.42686653
O       5.71959400     2.90606000     1.59368799    -0.16485071     0.20497459     0.51827674
O       1.93463001     6.70416600     1.61152697    -0.22393057    -0.07079150     0.15896083
O       1.86868802     3.05199597     1.46485201    -0.97763020    -0.64220781     1.54185617
