# total energy = -39031.28365554 eV

CRYSTAL
PRIMVEC
        5.93200024     0.00000000     0.00000000
        0.00000000     9.29399984     0.00000000
        0.00000000     0.00000000     9.29399984
PRIMCOORD
46 1
Ti      4.50588999     6.91152802     7.11918300    -1.27859002    -0.00516741    -1.14135528
Ti      4.44819999     7.08331399     2.05626600    -1.35245733    -1.19601876     1.27118036
Ti      4.51892400     2.53460599     6.79791203    -1.04402279     0.09512057    -0.30129844
Ti      4.66806498     2.15952002     2.75181600    -1.88567604     0.77674932    -1.82495839
Ti      1.40910900     6.96943203     6.97441799     1.88167026    -0.16878810    -0.10479435
Ti      1.44600700     6.73404203     2.39131299     0.91177960    -0.27826109     0.42126770
Ti      1.45055898     2.19051600     7.13995500     0.84108889     0.23122968    -1.67522037
Ti      1.66382900     2.53823699     1.82746299    -0.04104691     0.79708753     3.06193072
Ti      3.02411601     4.65972700     4.67269200    -0.85415730     0.25365022    -0.10403639
Ti      2.93309101     4.85966202     9.05109801     0.27812122    -2.34995831     2.02166122
Ti      2.92695203     9.20829001     4.56907000    -0.03750701     0.19391730     1.59131856
Ti      2.90536398     0.00452600     0.02668699     1.09751924     0.94930049    -0.28690899
Ti      0.06555099     4.73671298     4.65873300     1.17468065    -1.18771229     0.85932033
Ti      5.87475702     4.49882600     9.27581397    -0.12117099     0.30932311    -0.63393606
Ti      5.89995300     9.07188298     4.89355598    -0.96480451     2.80125599    -0.65058293
Ti      5.88598802     0.05815801     0.01261701    -1.04239888     0.04058308     0.47129624
O       4.33593001     5.65126298     5.70833300     0.19693809    -1.13873250    -1.33621464
O       4.54102900     5.67025399     0.60826898     0.23729723     0.33765770     1.28364944
O       4.32699702     0.78137000     5.62394801     0.70825717     1.37037458    -0.73885845
O       4.31369398     1.00332398     0.90233098     0.91732573    -0.60528239     1.10237220
O       1.50450199     5.81359202     5.53008800     0.19938295    -1.75833260    -1.12819123
O       1.51172298     5.45862002     0.98789201    -0.60471263    -1.04101897    -0.17375444
O       1.57646300     0.83829101     5.71904699    -1.25007185     0.18267283    -0.53490844
O       1.43376999     0.92288502     1.09169399    -0.36652015    -0.52924070    -1.70697042
O       4.40747800     8.36465198     8.40672300     0.21951933     0.63799609     0.56486437
O       4.49957198     8.31570599     3.68558699    -0.56741362     1.08292488     0.06369936
O       4.30939103     3.73794098     8.29677701     0.48219232     0.37261701     0.61691869
O       4.49610201     3.77094799     3.75259601     0.47580107    -1.57149792     0.61558146
O       1.46472299     8.34539702     8.57547699    -1.02347042     0.27003047    -1.40583705
O       1.27463501     8.44498701     3.90655199     2.13953092    -1.42363886    -2.57121416
O       1.52623101     3.94011902     8.20549102    -0.09866509    -1.18414463     1.91287009
O       1.51532800     3.71026099     3.82956998    -0.66581929     0.94232534    -0.52810864
O       2.90389101     6.18593600     8.02406900    -0.19732967     2.36456706    -2.25226689
O       3.29423199     5.86180398     3.15677900    -1.90508222     1.50299419    -0.64773723
O       2.93969398     1.55659203     7.98191702     0.18974080    -1.08991186     0.46483480
O       2.81831702     1.58318101     3.07358201     1.60391928    -0.23012102     0.52880875
O       5.88838201     5.77150999     7.61005300     0.63542293     1.63349572     1.33154345
O       5.91429402     5.85666900     3.26305700    -0.06364357     2.38318700    -1.94560359
O       5.75986603     1.60163999     7.95310501     1.15389122    -1.20362074     0.39214069
O       2.92284201     7.84521402     6.05364798     0.02830014     0.43582966     0.03656959
O       2.72562898     7.57180100     1.36375798     2.28133528     2.47533023    -0.18506370
O       2.91849101     3.25272201     5.99103399     1.15306820    -0.59936191     0.80525541
O       0.00650698     7.83288499     6.10094198    -1.02045760    -0.71813432     1.92402329
O       0.03397799     8.02705499     1.43503498    -0.08759803    -1.48475015     0.80739174
O       0.26562798     3.40209298     6.19470902    -2.75720423    -0.96108052    -0.80548552
O       5.79589300     3.35465499     1.44245802     0.42303764    -1.71544529     0.53480740
