# total energy = -19517.71614841 eV

CRYSTAL
PRIMVEC
        7.60600008     0.00000000     0.00000000
        0.00000000     7.60600008     0.00000000
       -1.89786986    -1.89786986     4.85670466
PRIMCOORD
23 1
Ti      3.78269101     6.52761300     1.25046701     0.35907809     0.84290357     0.81760957
Ti      3.85657897     2.85085300     1.13755498    -0.65162628    -0.74632288    -0.33417797
Ti      0.02145502     6.59131699     1.35543900    -0.27294996     1.21058612    -0.05127939
Ti      0.03211503     2.84684200     0.98246101     0.62121912    -0.72837220     0.44030107
Ti      5.52444623     2.92462322     3.61401180    -0.41488493    -0.27281831    -0.41575293
Ti      5.72636524    -1.03807976     3.65719980    -0.43259392     0.30582666     0.02970397
Ti      1.87729625     3.04109222     3.58830982    -1.05676699    -2.92750465    -0.30496277
Ti      1.99246321    -0.96201678     3.76109883    -0.19440298     1.71201647    -1.02016038
O       3.69802699     4.67758700     0.71316599    -0.45978309     1.33826972     0.73730344
O       4.15310001     0.89361998     0.68667802    -0.18654337    -0.05490079     2.42341527
O       0.12227402     4.81548900     0.94365999     0.52096586    -0.56023973    -1.05392900
O      -0.25455601     0.94358299     0.73020603     0.84774651    -0.72124613     0.32674877
O       5.71489522     4.72977922     3.95386482     0.63126211    -0.56362613     0.92993622
O       5.69448623     1.00800223     3.94812383     0.31176309     0.76146591     0.01138665
O       1.58888824     4.75203023     4.16314580    -0.36215827     0.22354876    -0.82109778
O       1.92133522     0.97284925     4.05335983    -0.33335213    -0.05112229     0.10846717
O       3.60504621     3.01399422     3.42943779     3.50356259     0.17570386    -1.43361449
O       3.85108622    -0.90183175     3.37646482    -0.66801244    -0.51204644    -1.36727717
O      -0.01832879    -0.80730477     3.26213581     0.07488778    -0.44232658    -0.30689213
O       5.63191398     6.27893700     1.67209401     0.51647337     0.97242346    -0.17725860
O       5.86594998     2.95852099     1.57893802    -1.10164021    -0.01220400     1.55722032
O       1.95039801     6.85501099     1.78919400    -0.10960103    -0.69303700    -1.23129199
O       1.99089700     2.56628402     1.39401602    -1.14264315     0.74302261     1.13560167
