# total energy = -19520.00905698 eV

CRYSTAL
PRIMVEC
        5.17575250     0.00001323     0.00000000
        0.00001429     5.50856584     0.00000000
        0.00000000     0.00000000     9.26345890
PRIMCOORD
23 1
Ti      1.84354449     3.37437560     3.40664228     0.00442101    -0.02176080     0.01888476
Ti      3.37569552     2.17007635     5.76865660    -0.01896189     0.01034664     0.01334506
Ti      4.57234231     1.94602130     1.42593673     0.01594573    -0.01629026     0.01496768
Ti      0.85054646     3.30971454     7.94465764    -0.01858600     0.00127681    -0.03254941
Ti      2.02217716     0.49117222     1.24965818     0.03736560     0.00086698     0.02533797
Ti      3.16032533     5.16540929     7.91275834     0.02209658    -0.00146939    -0.00334783
Ti      0.62044876     0.70756788     5.65998500    -0.00752048     0.00819154    -0.01407834
Ti      4.57211998     4.83364749     3.57272949     0.00206742     0.00200957    -0.01190910
O       1.53472196     1.94986200     4.65848509    -0.00698466     0.00880192     0.02441623
O       3.57690018     3.52300442     4.50614461    -0.01328592    -0.01568296    -0.00645553
O       0.73468067     2.11289502     0.09812247    -0.00057541     0.01787689    -0.01365848
O       3.53675393     0.85885853     0.08450940    -0.00237570     0.01785940     0.02402748
O       1.69482297     4.70370097     9.14538082     0.00741018     0.00644704    -0.03265199
O       4.06244725     0.77216988     4.69859082     0.01238604    -0.01845564     0.00970155
O       1.03667570     4.63701915     4.62236308    -0.00566491    -0.01607531    -0.01071893
O       0.18025056     3.36747866     2.39195847    -0.03540950    -0.00333421    -0.00269220
O       4.94341757     2.14915861     6.83511756    -0.00067749    -0.01550170    -0.00471823
O       2.78238019     2.12264524     2.10181819     0.01726856     0.05161800    -0.01913750
O       2.48733539     3.41407870     7.13736367    -0.00436034    -0.01055644     0.02145098
O       0.26935304     0.55211622     2.20155769    -0.01044408     0.00504399     0.00549651
O       4.89801972     4.77163406     7.35426606     0.00110789     0.03791530    -0.02452036
O       2.32320152     0.73803820     6.75602177    -0.01654068    -0.01531941     0.04084379
O       2.80502723     4.86341084     2.46069904     0.02131882    -0.03380796    -0.02203385
