# total energy = -4984.74829240 eV

CRYSTAL
PRIMVEC
        4.26630992     0.00000000     0.00000000
        1.64088084     3.93813539     0.00000000
       -2.95363499    -1.96909410     5.56148906
PRIMCOORD
6 1
Ti      1.23054531     2.95375316     1.39037197     0.00005579    -0.00005579     0.00000000
Ti      1.72301059    -0.98471183     4.17111633    -0.00005579     0.00005579    -0.00000000
O       0.41026456     0.98452869     0.90592099    -0.00065255    -0.00109272    -1.70607208
O       2.54329114     0.98451256     4.65556738     0.00065255     0.00109272     1.70607208
O      -0.41022772    -0.98450412     3.68666540    -0.00109272    -0.00065255    -1.70607208
O       3.36378335     2.95354533     1.87482302     0.00109272     0.00065255     1.70607208
