# total energy = -19070.69594610 eV

CRYSTAL
PRIMVEC
        5.17600016     0.00000000     0.00000000
        0.00000000     5.50899976     0.00000000
        0.00000000     0.00000000     9.26300011
PRIMCOORD
22 1
Ti      2.01197699     3.46594398     3.29087701    -0.37337343     0.29940173     1.18923515
Ti      3.44069201     2.43463800     5.96903900     0.64470487    -0.25917269    -0.91653562
Ti      4.48643601     2.16209902     1.37342298     0.90635200     1.22235997    -0.37954408
Ti      0.87662900     2.47290001     7.85395900    -2.01113898    -1.31562626     2.88176111
Ti      1.88066203     0.66850898     1.45974698    -0.63067590     0.67505958    -0.48481382
Ti      2.92574598     5.39627601     8.03282599     0.23152793     0.79772799    -1.09728296
Ti      0.46608800     5.33549402     6.17738301     0.39449093     0.25570427    -2.12488283
Ti      4.56372102     4.93759898     3.31269800    -1.37664448    -0.00481671     2.28675800
O       3.79628801     3.51586698     4.21532702    -0.41514873    -2.22564722     3.07353823
O       1.11984601     2.31218401     0.52221598    -1.61691338    -0.33667708    -2.86355718
O       4.98581200     3.84507000     7.09359098    -3.90978495    -0.10022704    -0.64990313
O       3.46151402     1.13270798     0.18747401     1.24520372    -0.15653139    -0.67540643
O       1.55336098     5.34070499     9.18513099    -1.11950295    -1.45382079    -0.87345883
O       4.21111498     0.56457402     4.85286998     0.62600754     0.23896613     0.57677142
O       1.42513403     4.67436902     4.56883901    -2.38872130     0.13073396     0.88393402
O       0.14794701     3.82916299     2.07126299     0.91455665    -0.93417623     0.37972662
O       4.69268400     1.12826702     7.06121999    -2.12403205     1.28107011     1.90258542
O       2.77940100     2.10161999     2.26979199     0.70664945     0.06373304     1.19201683
O       1.97731001     3.71739001     7.37648501     5.42351659     2.45974702    -1.50863751
O       0.10163802     0.89834199     2.35080902     1.35057271     0.38034960     0.25253205
O       1.85012998     1.32729100     6.81690002     2.81116991    -2.66315478    -1.36570006
O       2.83100700     4.83331201     2.42968998     0.71118411     1.64499678    -1.67913668
