# total energy = -19075.01064316 eV

CRYSTAL
PRIMVEC
        7.60600008     0.00000000     0.00000000
        0.00000000     7.60600008     0.00000000
       -1.89786986    -1.89786986     4.85670466
PRIMCOORD
22 1
Ti      3.62690202     6.68975698     1.36916898    -0.43552575    -1.04574286     0.35761539
Ti      3.87319398     2.91482302     1.28174699     0.19234533     0.79308792     0.12130726
Ti      0.02166002     6.61811998     0.99372502     0.45638692    -0.31638079     0.61487518
Ti      0.20196500     2.80784301     1.05033598    -0.88833370     0.29818329    -0.76915788
Ti      5.85179020     2.86199023     3.38152179    -1.08902714     0.00249886     0.77571445
Ti      5.96516023    -0.93568079     3.49719983    -0.06969980     0.21123163     0.85369913
Ti      1.87443721     2.86251025     3.61690883     1.30236348    -1.40145537     1.48278351
Ti      1.36805120    -1.02331577     4.12681879    -0.27531717     2.47498236    -3.44902793
O       3.51578798     4.69281598     0.92563002     0.16601542     2.29846218     0.07371021
O       4.00258300     1.02486599     0.92947798     0.07459596    -1.61344008     1.37216844
O       0.23777299     4.72965698     0.68467498     0.16076985    -0.37204031    -0.03433812
O      -0.17033999     0.93297399     0.49214400     0.18463176     0.44964471     1.81746722
O       5.80039423     4.73392924     3.92243582     0.27619777     0.38836528    -0.44278475
O       5.63678924     1.00259123     3.82348883     0.97684447    -0.84278659     0.23768083
O       1.67487923     4.82176023     4.37060879     0.31848498    -1.73498209    -1.47456935
O       1.86330221     1.05049124     4.20797283    -0.28331176    -0.77915819    -1.33099684
O       3.92958025     3.00305824     3.18336079    -1.14172501     0.09352931     1.00756197
O       0.14529720     2.91501924     3.03828981    -1.30431315     0.27506083     0.33511925
O       5.72007698     6.48957600     1.68649800    -0.11373613     0.25724591    -0.75085290
O       5.77602800     2.96724898     1.46564403     1.12399082    -0.12517420     0.47566866
O       1.70392201     6.69927799     2.09602701     0.51592649     0.01246446    -0.17814332
O       1.97041297     2.40899201     1.74101099    -0.14756389     0.67640376    -1.09550016
