# total energy = -19931.01783960 eV

CRYSTAL
PRIMVEC
        7.23311401     0.00000000     0.00000000
        0.00002545     4.14519579     0.00000000
        0.00000000     0.00000000    10.94309694
PRIMCOORD
24 1
Ti      2.62167111     2.45643932     4.05981106     0.20159745     0.35816432     1.40099283
Ti      4.61146852     1.68875682     6.88328633    -0.20159745    -0.35816432    -1.40099283
Ti      6.23810416     1.68875828     1.41169395     0.20295705    -0.35834789    -1.40085039
Ti      0.99503547     2.45643797     9.53140357    -0.20295705     0.35834789     1.40085039
Ti      2.62165850     0.38384148     1.41173781     0.20159745     0.35816432    -1.40099283
Ti      4.61148113     3.76135477     9.53135971    -0.20159745    -0.35816432     1.40099283
Ti      0.99502286     0.38383984     6.88324247    -0.20295705     0.35834789    -1.40085039
Ti      6.23811677     3.76135635     4.05985492     0.20295705    -0.35834789     1.40085039
O       2.28933529     1.45959397     5.58417879     1.78975354     0.42964152    -0.55158976
O       4.94380435     2.68560210     5.35891861    -1.78975354    -0.42964152     0.55158976
O       1.32728205     1.45961067     0.11266530    -1.79052128     0.42911471    -0.55212121
O       5.90585764     2.68558546    10.83043176     1.79052128    -0.42911471     0.55212121
O       4.94379174     0.61300421     0.11262980    -1.78975354    -0.42964152    -0.55158976
O       2.28934790     3.53219192    10.83046725     1.78975354     0.42964152     0.55158976
O       5.90584503     0.61298751     5.58421428     1.79052128    -0.42911471    -0.55212121
O       1.32729449     3.53220863     5.35888306    -1.79052128     0.42911471     0.55212121
O       0.26281123     2.52134309     2.95600359    -1.34042045     0.51443320     0.78657145
O       6.97032840     1.62385304     7.98709381     1.34042045    -0.51443320    -0.78657145
O       3.87937716     1.62381428     2.51557987    -1.34056237    -0.51445454    -0.78607960
O       3.35376247     2.52138185     8.42751730     1.34056237     0.51445454     0.78607960
O       0.26279862     0.44874514     2.51554494    -1.34042045     0.51443320    -0.78657145
O       6.97034102     3.69645100     8.42755223     1.34042045    -0.51443320     0.78657145
O       3.35374986     0.44878390     7.98712868     1.34056237     0.51445454    -0.78607960
O       3.87938978     3.69641224     2.95596866    -1.34056237    -0.51445454     0.78607960
