# total energy = -4981.21194589 eV

CRYSTAL
PRIMVEC
        4.08933502     0.00000000     0.00000000
       -0.00000701     3.02255214     0.00000000
       -2.04469254    -1.51131561     4.64263445
PRIMCOORD
6 1
Ti     -0.00017660     2.26702540     1.16065834    -0.00538621    -0.01089685    13.04706937
Ti      2.04481187    -0.75578887     3.48197542     0.00538621     0.01089685   -13.04706937
O       0.00004265     0.75563088     0.75624709     0.00480231     0.01071173    -4.66641950
O       2.04459247     0.75560560     3.88638667    -0.00480231    -0.01071173     4.66641950
O      -0.00001830    -0.75562797     3.07756416    -0.00086081    -0.00038721     0.93487223
O       2.04465337     2.26686436     1.56506964     0.00086081     0.00038721    -0.93487223
