# total energy = -19516.29936367 eV

CRYSTAL
PRIMVEC
        5.17600016     0.00000000     0.00000000
        0.00000000     5.50899976     0.00000000
        0.00000000     0.00000000     9.26300011
PRIMCOORD
23 1
Ti      2.00125898     3.16930700     3.36750500    -0.69045098     0.15445162     3.75284322
Ti      3.26479900     2.21232000     6.04723499     0.19094819     1.29669985    -3.39532656
Ti      4.37293299     2.18246398     1.42163701    -0.04142589     0.37341071    -1.77568009
Ti      0.69807798     3.32837202     7.82679897     1.21381980     3.24941177     2.28078121
Ti      2.01417202     0.22068898     1.41190301    -0.72949474     0.11879041    -2.90316144
Ti      3.42588097     4.99303199     7.97505899    -0.80546521    -0.12693207     1.86491412
Ti      0.73812199     0.56652002     5.93820098    -0.13872264    -1.19408966    -4.15230101
Ti      4.57161301     4.92336099     3.39073498     1.89030428     0.34722350     3.60530940
O       1.51046200     2.05621700     4.79575101     1.23548186    -0.44318636     0.04948578
O       3.56545401     3.40305401     4.49782602     0.59470564     0.37472506    -0.25601229
O       4.36546402     3.67406802     8.92163199    -0.44431636    -1.62065357     2.38511276
O       3.48819001     0.87419002     0.14464102    -0.25936038    -0.25105083    -0.41699992
O       1.63528799     4.63751399     9.08021498     0.75838701     0.60818208     1.07468784
O       4.28339599     0.67886800     4.81234601    -0.57708740     0.14694246    -0.47259105
O       1.16620400     4.82873399     4.36457897    -0.80056957    -0.13290166    -0.39788325
O       0.26378502     3.24641702     2.53832103    -0.10075360     1.05944222    -0.81093369
O       0.02969499     2.12715501     6.76856798    -2.69286415    -2.09022563    -0.52825674
O       2.72070699     1.79736000     2.24551000     0.01410173     0.56705007     0.19372215
O       2.39950598     3.70020302     6.93399800     0.47333744    -1.44161191    -0.17245218
O       0.21555898     0.76185802     2.12032698     0.43972385    -1.27487221    -0.51585707
O       4.97197502     4.67608101     6.84991401     0.13510972     1.08336840     0.00011133
O       2.37667299     0.79392299     6.85286798     0.37433168    -0.03749441     0.91892829
O       3.03951200     4.55529498     2.30301802    -0.03974027    -0.76667959    -0.32844132
