# total energy = -4980.37337379 eV

CRYSTAL
PRIMVEC
        2.85852399     0.00000000     0.00000000
        1.91837758     4.04724365     0.00000000
       -0.00001253    -0.00006018     4.60264668
PRIMCOORD
6 1
Ti      2.38844442     2.02359175     2.30132324     0.00000000     0.00000000     0.00000000
Ti      0.00000000     0.00000000     0.00000000     0.00000000     0.00000000     0.00000000
O       1.80312302     0.78873650     0.89698802    -8.17079970     3.49574257     4.71247774
O       2.97376578     3.25844702     3.70565846     8.17079970    -3.49574257    -4.71247774
O       0.58531616     1.23483097     3.19831222     8.16743541    -3.49374406     4.70853239
O       1.33304877     2.81235242     1.40433427    -8.16743541     3.49374406    -4.70853239
