# total energy = -19960.78221895 eV

CRYSTAL
PRIMVEC
        7.60600008     0.00000000     0.00000000
        0.00000000     7.60600008     0.00000000
       -1.89786986    -1.89786986     4.85670466
PRIMCOORD
24 1
Ti      3.79124199     6.49802400     1.29730200    -1.16389821     1.35455226     0.52274815
Ti      3.79395799     2.89505798     1.24280198    -1.13221938    -0.45673659    -1.80127929
Ti     -0.00935802     6.56589299     1.21262798     1.10140290     0.55465426     0.67816188
Ti     -0.02537098     2.88670698     1.08143102     0.82539641    -0.64533042     1.11180995
Ti      5.74926020     2.80758525     3.53877681    -0.27650759     1.17446750     0.36753779
Ti      5.79766722    -1.00730377     3.69973682    -0.15051038    -0.85901077    -0.03471556
Ti      1.80866021     2.99839524     3.55433081     0.67987578    -1.44953554     0.14818816
Ti      1.93594623    -0.94187677     3.73779583     0.39195788     1.20491658    -0.49129840
O       3.58547702     4.80655602     0.70927902     0.36654637    -1.97095108     0.67541028
O       3.58096198     0.99605700     0.73047802     1.11955026     1.15835619     1.64257043
O       0.05208702     4.68932098     0.73524501    -0.44995968     1.15739974     0.02037086
O       0.02492102     0.87375599     0.82980099    -0.59186354     0.82246175    -0.33407513
O       5.86128824     4.66745320     4.17668983    -0.51298284     0.34211009    -0.78542346
O       5.73761920     0.97906322     4.02213282    -0.15982909    -1.10903522    -0.85146921
O       1.89079323     4.73399020     4.27420381     0.47499734     0.63723941    -2.31622954
O       1.88183225     1.03876124     3.93309980     0.48453974    -0.07411902     0.73765491
O       3.77016422     2.99438720     3.11891483     0.62314565    -0.31170909     0.55777070
O       3.86740425    -1.14661978     3.28499383    -0.30375667     0.30094928     0.79042065
O      -0.01197676     2.91825420     3.13552883    -0.70194305    -0.26455839    -0.06559195
O       0.10145921    -1.10044976     3.39667679    -2.25254997     0.18974183    -1.29747324
O       5.63785400     6.49900202     1.70106101     2.38837729     0.40948767     0.01149823
O       5.70656602     3.04922801     1.56731803    -0.35177255    -0.65678212     0.03283377
O       1.90248000     6.77376599     1.70616302    -0.65982116    -0.80981732     0.06728631
O       1.83752598     3.07136402     1.53262702     0.25182396    -0.69875077     0.61329318
