# total energy = -39038.83199287 eV

CRYSTAL
PRIMVEC
        5.93188753     0.00000000     0.00000000
        0.00000000     9.29428401    -0.00002646
        0.00000000    -0.00002646     9.29428401
PRIMCOORD
46 1
Ti      4.44891576     6.97069300     6.97069300     0.00000000     0.00000000     0.00000000
Ti      4.44891576     6.97070623     2.32355100     0.00000000     0.00000000     0.00000000
Ti      4.44891576     2.32355100     6.97070623     0.00000000     0.00000000     0.00000000
Ti      4.44891576     2.32356423     2.32356423    -0.00000000     0.00000000     0.00000000
Ti      1.48297199     6.97069300     6.97069300     0.00000000     0.00000000     0.00000000
Ti      1.48297199     6.97070623     2.32355100     0.00000000     0.00000000     0.00000000
Ti      1.48297199     2.32355100     6.97070623     0.00000000    -0.00000000    -0.00000000
Ti      1.48297199     2.32356423     2.32356423    -0.00000000     0.00000000     0.00000000
Ti      2.96594376     4.63745181     4.63928757     0.00000000     0.10834376     0.07729459
Ti      2.96594376     4.77506164    -0.12793287     0.00000000    -0.06225029     0.06225029
Ti      2.96594376     0.02597351     4.62115526     0.00000000     0.05128427    -0.05128427
Ti      2.96594376     0.00784121     0.00967696     0.00000000    -0.07729459    -0.10834376
Ti      0.00000000     4.63928757     4.63745181     0.00000000     0.07729459     0.10834376
Ti      0.00000000     4.62115526     0.02597351     0.00000000    -0.05128427     0.05128427
Ti      0.00000000    -0.12793287     4.77506164     0.00000000     0.06225029    -0.06225029
Ti      0.00000000     0.00967696     0.00784121     0.00000000    -0.10834376    -0.07729459
O       4.44891576     5.55458662     5.55458662     0.00000000    -0.02301652    -0.02301652
O       4.42001944     5.50405724     0.94075834    -0.04098289    -0.05237339     0.03456515
O       4.47781207     0.94075834     5.50405724     0.04098289     0.03456515    -0.05237339
O       4.44891576     0.94009771     0.94009771     0.00000000     0.03027552     0.03027552
O       1.48297199     5.55458662     5.55458662     0.00000000    -0.02301652    -0.02301652
O       1.51186831     5.50405724     0.94075834     0.04098289    -0.05237339     0.03456515
O       1.45407568     0.94075834     5.50405724    -0.04098289     0.03456515    -0.05237339
O       1.48297199     0.94009771     0.94009771     0.00000000     0.03027552     0.03027552
O       4.44891576     8.38679944     8.38679944     0.00000000     0.02301652     0.02301652
O       4.47781207     8.43735529     3.70634372     0.04098289     0.05237339    -0.03456515
O       4.42001944     3.70634372     8.43735529    -0.04098289    -0.03456515     0.05237339
O       4.44891576     3.70703080     3.70703080     0.00000000    -0.03027552    -0.03027552
O       1.48297199     8.38679944     8.38679944     0.00000000     0.02301652     0.02301652
O       1.45407568     8.43735529     3.70634372    -0.04098289     0.05237339    -0.03456515
O       1.51186831     3.70634372     8.43735529     0.04098289    -0.03456515     0.05237339
O       1.48297199     3.70703080     3.70703080     0.00000000    -0.03027552    -0.03027552
O       2.96594376     6.07201985     7.86936616    -0.00000000    -0.05788481     0.05788481
O       2.96594376     6.07014112     3.24232299     0.00000000     0.05845585     0.05151001
O       2.96594376     1.40477902     7.87127135     0.00000000    -0.05151001    -0.05845585
O       2.96594376     1.45224814     3.19488033     0.00000000     0.00825556    -0.00825556
O       0.00000000     6.03875391     7.90263210     0.00000000    -0.00933054     0.00933054
O       0.00000000     6.06188295     3.23687255    -0.00000000     0.02407865     0.01586191
O       0.00000000     1.41022945     7.87952952     0.00000000    -0.01586191    -0.02407865
O       2.96594376     7.90263210     6.03875391     0.00000000     0.00933054    -0.00933054
O       2.96594376     7.87952952     1.41022945    -0.00000000    -0.02407865    -0.01586191
O       2.96594376     3.23687255     6.06188295     0.00000000     0.01586191     0.02407865
O       0.00000000     7.86936616     6.07201985    -0.00000000     0.05788481    -0.05788481
O       0.00000000     7.87127135     1.40477902     0.00000000    -0.05845585    -0.05151001
O       0.00000000     3.24232299     6.07014112     0.00000000     0.05151001     0.05845585
O       0.00000000     3.19488033     1.45224814     0.00000000    -0.00825556     0.00825556
