# total energy = -19067.53790467 eV

CRYSTAL
PRIMVEC
        5.93400000     0.00000000     0.00000000
        0.00000000     9.29699974     0.00000000
        0.00000000     0.00000000     4.64899994
PRIMCOORD
22 1
Ti      4.34898100     6.52309202     2.55453602     1.92237727     1.70786285    -1.97466015
Ti      4.26024199     2.71357601     1.81537801     3.46112471    -1.47039439     3.97298295
Ti      1.38690197     7.49227502     2.47185901     1.80084246     0.38101398     1.19593725
Ti      1.46646499     2.29381298     2.03380698     1.15226653     4.28341986     0.32062568
Ti      3.04273500     4.46300203     4.50109501    -3.16832121     1.18067004    -2.80362474
Ti      3.17771801     0.26457100     0.20773901    -0.34287550    -0.58785904     0.95620699
Ti      5.92440401     4.40726802     4.42895201     2.43916636     1.32286803     1.20570051
Ti      0.07323400     9.22675797     0.27546602     0.32205907     0.26924834     1.18032808
O       4.02621299     5.11977100     1.10525601     2.60440454     1.69976901     2.80255954
O       4.82030298     0.95105699     1.46640900    -1.35653356    -0.55682479    -1.71216714
O       1.37623498     0.68307501     1.78383301    -1.15751210    -4.24444141    -1.62436290
O       4.50455900     8.55674898     4.17085602    -0.08428079    -0.19799739    -2.15134900
O       4.53026802     3.96232198     3.50962502    -1.98726088    -1.30973483    -3.81055473
O       1.69616300     8.41601101     4.24396202    -1.41998892     1.08989258    -2.56435137
O       1.26832198     3.47705400     3.57260198     1.40803843     1.12248492    -1.87722019
O       2.87045098     6.09353901     3.37112002    -1.36215733     0.02355877     0.32039505
O       3.10699702     1.73354001     2.90273301     0.92597363     0.54023834     1.86563043
O       0.14669402     6.10397697     3.43278002    -0.78252531     0.72517657    -0.63528589
O       2.92101101     8.13486702     1.45273401     0.76276740    -2.29303458     2.84482283
O       3.04125003     2.82425200     0.64110501    -4.01174672    -2.13455815    -1.27335011
O       5.79704200     8.02102502     1.62555700    -0.32654925    -2.50283179     0.98824706
O       0.10225303     2.74057500     0.67084800    -0.79926911     0.95147359     2.77348986
