# total energy = -4987.34317426 eV

CRYSTAL
PRIMVEC
        3.11731588     0.00000000     0.00000000
        1.65872958     4.59408896     0.00000000
       -0.00001078    -0.00006472     4.96324941
PRIMCOORD
6 1
Ti      2.38801733     2.29701207     2.48162471     0.00000000     0.00000000     0.00000000
Ti      0.00000000     0.00000000     0.00000000     0.00000000     0.00000000     0.00000000
O       1.88191777     0.89530765     0.96726422    -0.95530170     0.64514247     0.41710945
O       2.89411689     3.69871648     3.99598524     0.95530170    -0.64514247    -0.41710945
O       0.50609503     1.40167826     3.44888992     0.95514821    -0.64480592     0.41672661
O       1.15262387     3.19234586     1.51435955    -0.95514821     0.64480592    -0.41672661
