# total energy = -19917.39259506 eV

CRYSTAL
PRIMVEC
        7.83867704     0.00000000     0.00000000
        0.00002758     4.49223544     0.00000000
        0.00000000     0.00000000    11.85926320
PRIMCOORD
24 1
Ti      2.84115986     2.66209470     4.39970222     0.38797344    -0.24070625     2.35011489
Ti      4.99754496     1.83014111     7.45956147    -0.38797344     0.24070625    -2.35011489
Ti      6.76036404     1.83014270     1.52988228     0.38738851     0.24135623    -2.35070136
Ti      1.07834077     2.66209324    10.32938154    -0.38738851    -0.24135623     2.35070136
Ti      2.84114619     0.41597704     1.52992981     0.38797344    -0.24070625    -2.35011489
Ti      4.99755862     4.07625889    10.32933401    -0.38797344     0.24070625     2.35011489
Ti      1.07832710     0.41597527     7.45951394    -0.38738851    -0.24135623    -2.35070136
Ti      6.76037771     4.07626060     4.39974975     0.38738851     0.24135623     2.35070136
O       2.48100057     1.58179254     6.05169143     1.13625241     1.15933296    -1.76705969
O       5.35770425     2.91044321     5.80757226    -1.13625241    -1.15933296     1.76705969
O       1.43840334     1.58181064     0.12209774    -1.13622979     1.15946768    -1.76783463
O       6.40030153     2.91042517    11.73716558     1.13622979    -1.15946768     1.76783463
O       5.35769058     0.66432549     0.12205927    -1.13625241    -1.15933296    -1.76705969
O       2.48101424     3.82791032    11.73720405     1.13625241     1.15933296     1.76705969
O       6.40028787     0.66430739     6.05172990     1.13622979    -1.15946768    -1.76783463
O       1.43841682     3.82792842     5.80753373    -1.13622979     1.15946768     1.76783463
O       0.28481403     2.73243228     3.20348296    -2.13896682     0.72452274     0.40282902
O       7.55389078     1.75980353     8.65578073     2.13896682    -0.72452274    -0.40282902
O       4.20416223     1.75976153     2.72618655    -2.13879378    -0.72447440    -0.40329105
O       3.63454259     2.73247428     9.13307689     2.13879378     0.72447440     0.40329105
O       0.28480036     0.48631450     2.72614870    -2.13896682     0.72452274    -0.40282902
O       7.55390445     4.00592131     9.13311475     2.13896682    -0.72452274     0.40282902
O       3.63452892     0.48635650     8.65581852     2.13879378     0.72447440    -0.40329105
O       4.20417590     4.00587931     3.20344511    -2.13879378    -0.72447440     0.40329105
