# total energy = -19072.92871176 eV

CRYSTAL
PRIMVEC
        5.17600016     0.00000000     0.00000000
        0.00000000     5.50899976     0.00000000
        0.00000000     0.00000000     9.26300011
PRIMCOORD
22 1
Ti      1.77498898     3.48927202     3.26323200    -0.96300345     0.07631628    -1.07754202
Ti      3.72427598     2.36647198     6.08976602    -0.73745334     1.49211379     0.09844141
Ti      4.50499399     2.11861700     1.48452899    -1.68463010    -0.19163750     1.17913509
Ti      1.17295799     2.71578702     7.83962602     0.42109286     1.75272656    -1.43078602
Ti      1.74659698     0.64101802     1.08051703     0.16330548     0.52935794    -0.17268101
Ti      3.25125502     5.31112700     7.91489598     1.67339669     0.99307739    -1.29427607
Ti      0.85281502     5.28055902     6.47723897     1.38849341     0.24337069    -1.30614249
Ti      4.18529002     5.19634702     3.65223501     1.41880184     0.47354133    -0.20808023
O       3.17330600     3.85116898     4.30692702     1.05009883    -1.38297274     2.89372652
O       0.72082498     2.42237898     0.24750498     0.15641492    -0.66293426     1.31111397
O       5.09638502     3.75016201     6.90085102    -3.04911248    -1.14521451    -0.21235392
O       3.54847600     0.61575102     0.25756501     0.29277780     0.42492278    -0.24931122
O       1.52701202     5.00328501     8.43165900    -2.15937522     0.89882895     3.18886716
O       3.75318298     1.12266599     4.81208301     0.17455097    -0.93194991    -1.47549212
O       0.83907398     4.79201999     4.57318102    -1.18731634     0.91935998     0.76084010
O       5.07186898     3.09601199     2.97859401     0.70041941     0.35584030    -1.34662195
O       4.77326399     1.11592301     7.13010701     0.60545131    -0.18021512     0.47612040
O       2.63894000     1.90343602     2.20010199    -0.40117195     1.49752931     0.44911507
O       2.46741699     3.94820501     6.80437698     1.24843534    -1.79342328    -1.63199471
O       0.10638299     0.60277797     2.10336098     0.06387291    -1.82822549     1.05580411
O       2.24718400     1.44472099     7.01244101     0.61220560    -1.26805827    -0.54063300
O       2.46676298     4.81713099     2.24929600     0.21274524    -0.27235423    -0.46724881
