# total energy = -19517.29932751 eV

CRYSTAL
PRIMVEC
        5.17600016     0.00000000     0.00000000
        0.00000000     5.50899976     0.00000000
        0.00000000     0.00000000     9.26300011
PRIMCOORD
23 1
Ti      1.78870499     3.29956102     3.46915100    -0.18159785    -1.33728190     2.56137377
Ti      3.41040699     2.29512201     5.80680198     0.28569003    -0.21642063    -1.95998326
Ti      4.36766000     1.96413699     1.59472798     0.87208355    -0.12959239    -0.80234569
Ti      1.14004502     3.32085099     7.90449902    -3.52255019    -1.08316220     0.17957671
Ti      1.97796100     0.35453902     1.20724900    -0.68626600    -0.46030246     1.32399623
Ti      3.30396198     5.37383101     7.85160998     0.53668070    -1.78034485    -0.63913380
Ti      0.61056598     0.44481798     5.85054399    -0.00509541     1.55923298    -1.90269778
Ti      4.36955700     4.86475001     3.33920100     0.26068219     1.32447755     2.83668014
O       1.49043201     2.08283298     4.93774398     1.10898662     0.98018922    -1.60821405
O       3.39777801     3.71999499     4.58974897    -0.05688954    -0.00214841    -0.08847015
O       0.39436702     2.52788099     0.15063200     0.04053886    -0.65995460     0.39281020
O       3.38605203     0.85049399     0.13094200     1.58817693     1.41182104    -0.23771246
O       1.65146398     4.76598003     8.87658202     0.75054489     1.45543673     1.29798643
O       4.26238500     0.88994903     4.59490200    -0.51581002    -0.08755175     0.62335545
O       0.91435098     4.80447201     4.41666600     0.60211967    -0.42716221     0.17017958
O       5.15392098     3.25524401     2.78719399     0.42043106    -1.16633896    -1.40726453
O       4.98260799     1.98650600     6.78487400     0.04930426    -0.10211346     0.86110339
O       2.53402998     1.87862300     2.33458397     0.23257822     0.44170540    -0.68849206
O       2.82697801     3.45849999     7.22173802     0.47721492     0.47845702     0.34388749
O       0.16825498     0.45792999     2.12562902     0.50718808     0.79804783    -1.53861221
O       5.12507198     4.71048902     7.15136602    -0.82147034     0.46075394     0.09707795
O       2.41429400     0.90372499     6.66334098    -0.65111823    -1.58915189     1.32872732
O       2.85890502     4.55629402     2.26355002    -1.29142240     0.13140399    -1.14382843
