# total energy = -19072.19959887 eV

CRYSTAL
PRIMVEC
        5.93400000     0.00000000     0.00000000
        0.00000000     9.29699974     0.00000000
        0.00000000     0.00000000     4.64899994
PRIMCOORD
22 1
Ti      4.37998099     6.73005298     2.48255400     0.09098289     1.02508918    -1.92970208
Ti      4.40725998     2.38420799     2.12891098     0.28951738    -0.31323016     0.13930988
Ti      1.50243100     7.20527199     2.66216401    -0.05598502     0.84357360    -1.21524676
Ti      1.65808902     2.36751901     1.95972598    -1.51311894     2.38690147     1.57512806
Ti      2.99873698     4.63960901     4.41789300     0.75440437    -1.01358838     0.56627745
Ti      2.99194902     0.14937801     0.19132800     0.75288948     0.02402363    -0.91060666
Ti      5.80405698     4.49440298     4.19060301     0.77392702    -1.90125513     0.99482112
Ti      5.88347199     9.23841898     0.29145802    -0.35105470    -1.15713055     1.26383008
O       4.30212902     5.40832998     0.92314601     0.50324375     0.47754685     0.91035315
O       4.48255798     0.69317298     1.35069101     0.26498416     0.30729579    -0.75459309
O       1.58214700     0.69436300     1.41520301    -1.03462258    -1.05901567    -1.51032569
O       4.45907998     8.43884401     4.11837799     0.27108231     0.08269596    -1.25613965
O       4.28993699     4.03310901     3.07964099     0.20755135     0.13992977     1.37650769
O       1.48105801     8.32451600     3.99246698    -0.05420607     2.59062034     1.48870811
O       1.60532698     3.99638998     3.23888799    -1.47009254    -0.28931041     0.08732729
O       2.90468102     6.32900701     3.61177301     0.21171808    -0.72215270    -0.38167629
O       3.04604501     1.48465699     3.35389699     0.18672849     0.21606042     0.00779842
O       5.89484401     6.24957898     3.65958999     0.46250024    -0.09360593    -1.32821593
O       3.02012601     7.95258102     1.67155298    -0.30431331    -1.91721320     0.43419829
O       3.05609302     2.87106498     0.87632901     0.23510973     1.60872030    -0.12671635
O       0.03074901     8.00775299     1.69577199    -0.35304036    -1.90158500     0.06048805
O       0.01919400     2.85950002     0.85496501     0.13179454     0.66563032     0.50847492
