# total energy = -4985.94901022 eV

CRYSTAL
PRIMVEC
        3.72418372     0.00000000     0.00000000
        1.75255059     3.28604790     0.00000000
       -2.73840215    -1.64304495     4.91837852
PRIMCOORD
6 1
Ti      1.31432507     2.46466248     1.22959430     0.00096751    -0.00096751     0.00000000
Ti      1.42400696    -0.82165964     3.68878362    -0.00096751     0.00096751     0.00000000
O       0.43817624     0.82150779     0.80116357     0.00019515     0.00022806    -2.97244678
O       2.30015563     0.82149503     4.11721440    -0.00019515    -0.00022806     2.97244678
O      -0.43814085    -0.82148651     3.26035283     0.00022806     0.00019515    -2.97244678
O       3.17647265     2.46448925     1.65802509    -0.00022806    -0.00019515     2.97244678
