# total energy = -39482.86577454 eV

CRYSTAL
PRIMVEC
        7.60629642    -0.00000847    -0.00005503
       -0.00000847     7.60629642    -0.00005503
       -3.80314186    -3.80314186     9.70738094
PRIMCOORD
47 1
Ti      1.90151165     4.65786993     6.12023015     0.00010927    -0.04644957    -0.05765984
Ti      3.84890689     6.65572531     1.18480204    -0.11014661    -0.00014167    -0.05391425
Ti      1.90146380     1.04664779     6.12046034     0.00008099     0.04699361    -0.05851242
Ti      3.79560231     2.85254712     1.22355414    -0.02363359    -0.00016198     0.02267560
Ti     -1.90166636     4.76271894     6.05722108     0.00009976     0.00119711     0.01239658
Ti     -0.04589630     6.65568192     1.18486567     0.11012682     0.00003085    -0.05407006
Ti     -1.90170762     0.94241488     6.05719653     0.00006171    -0.00148430     0.01243849
Ti      0.00721835     2.85253743     1.22362002     0.02346955    -0.00006556     0.02283295
Ti      3.81219452     0.94017446     8.50195929    -0.02160550    -0.01090071     0.04321538
Ti      5.70498105     2.85222501     3.64019236     0.00024785     0.00007610     0.00666662
Ti      3.81217918    -2.84205634     8.50196088    -0.02126817     0.01141956     0.04314236
Ti      5.70475520    -0.95095996     3.65369727    -0.00024246    -0.00006119    -0.11007899
Ti     -0.00882491     0.94016117     8.50197732     0.02137127    -0.01082409     0.04332362
Ti      1.90183198     2.85217137     3.67529762     0.00026534    -0.00034324     0.15964268
Ti     -0.00870061    -2.84208224     8.50195090     0.02115042     0.01136222     0.04314801
Ti      1.90160687    -0.95078399     3.46004134    -0.00017972    -0.00077287     0.12930365
O       1.90162162     2.85226543     5.67375215     0.00012444     0.00023500     0.07152786
O       3.80076323     4.75264594     0.78928129     0.00505762    -0.01713795    -0.01906139
O       3.80078770     0.95209424     0.78931422     0.00520623     0.01734184    -0.01910382
O      -1.90154258     2.85237856     5.67373238    -0.00001157     0.00015992     0.03105791
O       0.00246916     4.75264816     0.78932267    -0.00520597    -0.01723874    -0.01900432
O      -1.90157675    -0.95076394     5.63203167    -0.00000206    -0.00000026    -0.06474786
O       0.00246862     0.95209580     0.78935027    -0.00530059     0.01741177    -0.01902411
O       3.78317006     2.85236684     8.88706207    -0.00001954    -0.00000823    -0.04148785
O       5.70467845     4.75040788     4.05965646    -0.00000437    -0.01438790     0.02904191
O       3.82103288    -0.95079650     8.93457323     0.05151464    -0.00006402    -0.00878135
O       5.70467929     0.95431119     4.05968037    -0.00004499     0.01438893     0.02908999
O       0.01991915     2.85237096     8.88705686     0.00025017     0.00005888    -0.04155830
O       1.90144131     4.87384782     4.14132024    -0.00026380    -0.02127280    -0.06079016
O      -0.01797069    -0.95079727     8.93459339    -0.05139560    -0.00011159    -0.00885874
O       1.90145700     0.83098320     4.14124849    -0.00029619     0.02058580    -0.06104650
O       1.90157383     0.91736368     8.09528936     0.00002237     0.00920738    -0.05849030
O       3.78206715     2.85240958     3.25777339     0.01485635    -0.00001157     0.00986121
O       1.90158429    -2.81894975     8.09524081     0.00017278    -0.00946398    -0.05797043
O       3.82522086    -0.95071974     3.18576094    -0.04054091     0.00007122    -0.01927788
O      -1.90157571     0.96734126     8.04728330     0.00009076     0.03973744     0.03764559
O       0.02103100     2.85240799     3.25777161    -0.01483630     0.00000411     0.00975965
O      -1.90156412    -2.86880743     8.04728897     0.00018178    -0.03981252     0.03749827
O      -0.02210419    -0.95071474     3.18582835     0.04041776     0.00007842    -0.01947354
O       3.78172712     4.86430343     6.46473627    -0.03515831     0.03854291     0.03335082
O       5.70469345     6.65544040     1.60851047     0.00012316     0.00001286    -0.11076188
O       3.78175713     0.84036677     6.46475730    -0.03543110    -0.03850588     0.03365138
O       5.70471371     2.85232406     1.66418630    -0.00015427     0.00011339    -0.00019309
O       0.02139696     4.86430024     6.46477279     0.03539639     0.03859947     0.03329528
O       1.90157289     6.65547340     1.57821230    -0.00017818     0.00013087    -0.07020708
O       0.02135768     0.84037188     6.46479187     0.03548149    -0.03859176     0.03356962
O       1.90157326     2.85232851     1.65700862     0.00004088     0.00005296     0.10593977
