# total energy = -19069.33861771 eV

CRYSTAL
PRIMVEC
        5.17600016     0.00000000     0.00000000
        0.00000000     5.50899976     0.00000000
        0.00000000     0.00000000     9.26300011
PRIMCOORD
22 1
Ti      1.67947799     3.55280102     3.43279600     1.58819929    -1.16411855     0.25746677
Ti      3.63718902     2.52458401     6.19704798    -0.47321223    -0.96461861    -0.99113698
Ti      4.39686000     2.18164900     1.45265802     0.09826091     2.27451903    -0.58049155
Ti      1.23086898     2.01535600     7.95231601     0.09410447     2.56682220    -0.67874937
Ti      1.76362702     0.72359702     1.29148698     1.58004761    -0.69032474    -2.61472650
Ti      3.39691402     5.30611400     8.06310900    -0.74959049     1.74074213     2.11738214
Ti      0.53501497     5.34980599     6.05300398     2.16699597     0.21523870    -1.22645266
Ti      4.27526798     5.27731099     3.42451501    -0.99538625     0.09536148     0.65820960
O       3.35070701     3.49547397     4.64553801    -0.93044633     1.31691516    -0.53573608
O       0.70423300     2.38419900     0.41716699     1.37821774     1.15680633    -0.94283493
O       0.07642902     3.09533400     6.90994499    -0.75426502     2.60202807    -0.70412154
O       3.62537699     0.76434701     0.36993803     0.85356954    -0.36685748    -0.30971597
O       1.51525302     0.30482901     8.56873898    -0.38397692    -1.83086704     0.87972410
O       4.33768597     1.09917301     4.68500400    -0.34938374    -0.45712200     0.00682577
O       0.74568102     4.96320799     4.20607800     1.86975731    -0.12170373     3.57507425
O       0.15556001     3.79443600     2.48564101    -3.12109440    -2.12750921    -1.91215584
O       4.47431801     0.77525499     6.97229101    -0.23711802     0.79510443     1.22195965
O       2.81153201     1.83987400     2.26307599    -2.02651752     2.27599304     3.00107011
O       2.64227800     3.90394600     7.38762700    -1.40721362    -3.55669934    -1.21149295
O       0.21307798     0.93988198     2.17000398    -1.09743697    -2.35536740     3.38316678
O       1.89135802     1.38866900     6.35605998     0.88657198    -1.75064422    -2.63800656
O       2.42603199     4.79042500     2.37678401     2.00991642     0.34630176    -0.75525849
