# total energy = -19919.25418762 eV

CRYSTAL
PRIMVEC
        7.77139226     0.00000000     0.00000000
        0.00002735     4.45367548     0.00000000
        0.00000000     0.00000000    11.75746695
PRIMCOORD
24 1
Ti      2.81677222     2.63924410     4.36193654     0.38179971    -0.19044502     2.29010326
Ti      4.95464757     1.81443174     7.39553090    -0.38179971     0.19044502    -2.29010326
Ti      6.70233517     1.81443332     1.51675024     0.38133922     0.19069288    -2.29056297
Ti      1.06908463     2.63924265    10.24071732    -0.38133922    -0.19069288     2.29056297
Ti      2.81675867     0.41240643     1.51679736     0.38179971    -0.19044502    -2.29010326
Ti      4.95466113     4.04126954    10.24067020    -0.38179971     0.19044502     2.29010326
Ti      1.06907107     0.41240467     7.39548377    -0.38133922    -0.19069288    -2.29056297
Ti      6.70234872     4.04127124     4.36198366     0.38133922     0.19069288     2.29056297
O       2.45970442     1.56821492     5.99974558     1.19296068     1.10600826    -1.67844505
O       5.31171537     2.88546087     5.75772186    -1.19296068    -1.10600826     1.67844505
O       1.42605653     1.56823286     0.12104969    -1.19307716     1.10606405    -1.67872607
O       6.34536332     2.88544298    11.63641738     1.19307716    -1.10606405     1.67872607
O       5.31170182     0.65862313     0.12101156    -1.19296068    -1.10600826    -1.67844505
O       2.45971798     3.79505272    11.63645551     1.19296068     1.10600826     1.67844505
O       6.34534977     0.65860518     5.99978372     1.19307716    -1.10606405    -1.67872607
O       1.42606990     3.79507066     5.75768366    -1.19307716     1.10606405     1.67872607
O       0.28236928     2.70897792     3.17598525    -2.08999834     0.71349039     0.43814031
O       7.48905052     1.74469792     8.58148218     2.08999834    -0.71349039    -0.43814031
O       4.16807500     1.74465628     2.70278581    -2.08949261    -0.71342200    -0.43879003
O       3.60334480     2.70901957     9.05468138     2.08949261     0.71342200     0.43879003
O       0.28235573     0.48214012     2.70274828    -2.08999834     0.71349039    -0.43814031
O       7.48906407     3.97153572     9.05471891     2.08999834    -0.71349039     0.43814031
O       3.60333124     0.48218177     8.58151965     2.08949261     0.71342200    -0.43879003
O       4.16808855     3.97149408     3.17594773    -2.08949261    -0.71342200     0.43879003
