# total energy = -19932.39390439 eV

CRYSTAL
PRIMVEC
        5.96829640     0.00000000     0.00000000
        2.72072397     5.73990241     0.00000000
        0.00000000     0.00000000    10.97710755
PRIMCOORD
24 1
Ti      3.77551884     3.40146082     4.07242858     0.73502647    -2.98242652     0.75460595
Ti      4.91350134     2.33844151     6.90467903    -0.73502647     2.98242652    -0.75460595
Ti      6.25569639     2.33844345     1.41608138    -1.97665559    -0.96088717     0.66342559
Ti      2.43332390     3.40145910     9.56102641     1.97665559     0.96088717    -0.66342559
Ti      2.41515699     0.53150971     1.41612537     0.73502647    -2.98242652    -0.75460595
Ti      6.27386323     5.20839280     9.56098242    -0.73502647     2.98242652     0.75460595
Ti      1.07296191     0.53150759     6.90463503     1.97665559     0.96088717     0.66342559
Ti      7.61605837     5.20839490     4.07247264    -1.97665559    -0.96088717    -0.66342559
O       2.84701660     2.02111719     5.60153396     1.66160637     2.09270931    -1.03540111
O       5.84200358     3.71878514     5.37557370    -1.66160637    -2.09270931     1.03540111
O       2.05320372     2.02114037     0.11301549     0.35047903    -1.08100401     1.48764470
O       6.63581654     3.71876206    10.86409188    -0.35047903     1.08100401    -1.48764470
O       4.48164171     0.84883391     0.11297983    -1.66160637    -2.09270931    -1.03540111
O       4.20737848     4.89106848    10.86412748     1.66160637     2.09270931     1.03540111
O       5.27545466     0.84881077     5.60156956    -0.35047903     1.08100401     1.48764470
O       3.41356547     4.89109163     5.37553804     0.35047903    -1.08100401    -1.48764470
O       1.87174052     3.49133406     2.96519061     0.64921844     2.52647258     2.36958612
O       6.81727960     2.24856829     8.01191706    -0.64921844    -2.52647258    -2.36958612
O       4.26680202     2.24851487     2.52339811     1.03510723     1.67997768     1.10787616
O       4.42221815     3.49138746     8.45370932    -1.03510723    -1.67997768    -1.10787616
O       0.51137863     0.62138277     2.52336304     0.64921844     2.52647258    -2.36958612
O       8.17764149     5.11851957     8.45374439    -0.64921844    -2.52647258     2.36958612
O       3.06185627     0.62143617     8.01195200    -1.03510723    -1.67997768     1.10787616
O       5.62716391     5.11846616     2.96515555     1.03510723     1.67997768    -1.10787616
