# total energy = -19518.39545915 eV

CRYSTAL
PRIMVEC
        7.60600008     0.00000000     0.00000000
        0.00000000     7.60600008     0.00000000
       -1.89786986    -1.89786986     4.85670466
PRIMCOORD
23 1
Ti      3.81734202     6.70749400     1.15093702     0.39099577    -1.35696653    -0.50762774
Ti      3.85240900     2.78344101     1.19226698    -0.28243527     2.10822284     0.13167087
Ti      0.11161602     6.67535399     1.22936199    -1.33302698    -0.19197560    -0.67444637
Ti     -0.02277198     2.78607499     1.16407501    -0.22225061     0.18480042    -0.08704730
Ti      5.51618922     2.80523020     3.76246882     0.35257576     1.27050056     0.88778014
Ti      5.69759620    -0.90979677     3.50677381     0.64068624    -0.84587397     1.04389218
Ti      2.01406322     2.92311824     3.61942983    -1.83079351    -0.90217755     1.21125769
Ti      1.95840023    -0.91553379     3.59625779    -1.14839522     0.28224115    -0.15889732
O       3.87446897     4.65761400     0.68834900    -0.26056263     0.61358474     1.95909366
O       3.70403601     1.00538502     0.67452002    -0.03613095    -1.13823576     1.11528403
O      -0.15261800     4.69389201     0.92756199     0.38482204     0.01497128    -0.28105048
O       0.08837302     0.92774202     0.75992002     0.12660220     0.02158133     0.04561704
O       5.64708523     4.69088422     4.13986883     0.73911787     0.53322205    -0.95811244
O       5.60176623     0.95387623     4.07799081     0.30355998    -0.61284066    -0.23219667
O       1.87896321     4.73080323     4.07380084    -0.64128659     1.19621339    -0.02774556
O       1.82268420     0.98692922     4.03662682     0.09534245    -0.73814445    -0.27984540
O       3.72464323     2.92569020     3.45765082     2.14109415    -0.26526878    -1.83391483
O       3.78338323    -0.96249076     3.34177783     0.29064969     0.17787875    -1.31557278
O      -0.02175776    -0.79290480     3.23806480     0.26764371    -0.59970386    -0.60299076
O       5.69547600     6.73782099     1.50545101    -0.83629918    -0.03845780     1.19312138
O       5.77160699     2.66955201     1.86243198    -0.27558328    -0.02857397    -0.79845227
O       1.90728001     6.42156101     1.52447700     1.01815877     0.60286478     1.05344820
O       1.79679098     2.89137301     1.75988801     0.11551611    -0.28786236    -0.88326554
