# total energy = -19949.75750890 eV

CRYSTAL
PRIMVEC
        5.57384777     0.00000000     0.00000000
        1.74054407     5.67117350     0.00000000
        0.00000000     0.00000000    10.09266902
PRIMCOORD
24 1
Ti      3.05169651     3.36073219     3.74430822     0.70724981    -2.38427586     0.99090533
Ti      4.26269524     2.31044143     6.34836085    -0.70724981     2.38427586    -0.99090533
Ti      5.51618347     2.31044339     1.30198599    -1.65148008    -0.58063707     0.52171559
Ti      1.79820836     3.36073045     8.79068320     1.65148008     0.58063707    -0.52171559
Ti      2.18142460     0.52514554     1.30202646     0.70724981    -2.38427586    -0.99090533
Ti      5.13296717     5.14602826     8.79064273    -0.70724981     2.38427586     0.99090533
Ti      0.92793634     0.52514342     6.34832039     1.65148008     0.58063707     0.52171559
Ti      6.38645543     5.14603037     3.74434869    -1.65148008    -0.58063707    -0.52171559
O       2.37703314     1.99691664     5.15021175     1.27687690     1.73475197    -0.81201484
O       4.93735862     3.67425704     4.94245733    -1.27687690    -1.73475197     0.81201484
O       1.63568063     1.99693952     0.10390970    -0.09669331    -0.42103784     0.90418070
O       5.67871118     3.67423421     9.98875909     0.09669331     0.42103784    -0.90418070
O       4.06708668     0.83867022     0.10387696    -1.27687690    -1.73475197    -0.81201484
O       3.24730507     4.83250346     9.98879184     1.27687690     1.73475197     0.81201484
O       4.80843925     0.83864739     5.15024449     0.09669331     0.42103784     0.90418070
O       2.50595246     4.83252635     4.94242458    -0.09669331    -0.42103784    -0.90418070
O       1.26120836     3.44952925     2.72628169     0.30879835     1.19519420     1.11141426
O       6.05318340     2.22164443     7.36638738    -0.30879835    -1.19519420    -1.11141426
O       3.67127598     2.22159155     2.32008494     1.11052235     0.89415545     0.09219002
O       3.64311577     3.44958213     7.77258397    -1.11052235    -0.89415545    -0.09219002
O       0.39093637     0.61394244     2.32005270     0.30879835     1.19519420    -1.11141426
O       6.92345533     5.05723125     7.77261620    -0.30879835    -1.19519420     1.11141426
O       2.77284384     0.61399531     7.36641956    -1.11052235    -0.89415545     0.09219002
O       4.54154791     5.05717837     2.72624946     1.11052235     0.89415545    -0.09219002
