# total energy = -19076.16013008 eV

CRYSTAL
PRIMVEC
        7.60600008     0.00000000     0.00000000
        0.00000000     7.60600008     0.00000000
       -1.89786986    -1.89786986     4.85670466
PRIMCOORD
22 1
Ti      3.82429800     6.63810499     1.19674398     0.05763670    -0.92111862    -0.72850821
Ti      3.78841100     2.78432299     1.25273998     0.12461782     1.18042527     0.27942040
Ti      0.26241000     6.68335198     0.92257000     0.31199397     0.61921649     1.29028417
Ti     -0.00859601     2.83645499     1.12546301    -0.43910679    -0.12547425     0.34041958
Ti      5.68995123     2.87340024     3.58570483    -0.13122401    -0.23104636    -0.11822168
Ti      6.11948224    -0.87662577     3.55707682    -0.46947616    -0.04853396     0.80045002
Ti      1.87797624     2.82953420     3.66374779     0.02223697    -0.22701204     0.37084115
Ti      1.32485922    -0.95870778     3.97099980     1.42569214    -0.78234533    -3.05275445
O       3.68546602     4.70333502     0.77261900     0.35385489     0.58734097    -0.21503995
O       3.88140802     0.92732402     0.89036798    -0.87363598    -0.53329713     1.37031956
O      -0.16620600     4.88356401     0.70786802     0.65012296    -0.91722237    -0.01331523
O      -0.04719600     1.01000098     0.66454899     0.26289745    -0.80855671     1.09150286
O       5.73826623     4.85825224     3.83237181     0.28773560    -0.57606256     0.09952410
O       5.56569523     0.90436323     4.05817482     0.52168268     1.25072671    -0.65988210
O       2.08093821     4.84186722     4.10707180    -1.03722402    -0.77981588     0.43200128
O       1.90719021     0.78149923     4.14498682    -0.37400797     1.42563712    -0.66800113
O       3.75665623     2.80692420     3.29642279    -0.06929228    -0.05541501    -0.38238849
O      -0.02786579     2.66676922     3.23717780    -0.02162916     0.59073714    -0.09482103
O       5.64320700     6.75145402     1.78731003    -0.12334281    -0.23694704    -0.51319470
O       5.63318602     2.90634301     1.59637700     0.82500226    -0.07346030     0.40312599
O       1.99645702     6.52925498     1.93639201    -0.78225226     0.66414268     0.10842166
O       1.87316702     2.86005503     1.66237302    -0.52228201    -0.00191907    -0.14018380
