# total energy = -19517.53384607 eV

CRYSTAL
PRIMVEC
        5.93400000     0.00000000     0.00000000
        0.00000000     9.29699974     0.00000000
        0.00000000     0.00000000     4.64899994
PRIMCOORD
23 1
Ti      4.45941198     6.94003602     2.31362702     1.71742222     0.89228574    -0.31828829
Ti      4.50601900     2.40007998     2.33842601     0.24279656    -0.50798075    -0.15606679
Ti      1.47919800     7.04132203     2.27587202    -1.21008012     0.19544068    -0.61023048
Ti      1.54601600     2.29899802     2.35576302    -0.79690112     0.27568355    -0.05966478
Ti      2.99080700     4.63708398     0.23272998    -0.99993633     0.66028371    -0.10676356
Ti      2.94245501     0.09366099     4.56313601     0.80056623    -1.41037659     0.29662725
Ti      5.91742898     4.48234102     4.62129201     0.52954332     1.28708444    -0.32857322
Ti      0.00080102     0.08876599     4.58619899    -0.73636756    -0.90413802     0.17481580
O       4.49737299     5.44074002     0.93386000    -0.72894041     1.29562359     0.30632829
O       4.47149701     0.96130599     0.87187101    -0.59587189     0.00679954     0.19538360
O       1.42503301     5.48549699     0.95391999     0.32726273     0.14784440    -0.58217125
O       1.52663102     0.89264000     0.94010000    -0.05399601     0.30626092    -0.11356310
O       4.49238999     8.46747302     3.60388901    -0.71628827    -0.41388323     0.40131876
O       4.31952202     3.66718300     3.82612699     0.52553831     0.15314062    -0.71289261
O       1.39989899     8.45883802     3.64913101     1.02427029    -0.34822957     0.00054790
O       1.37747802     3.56131802     3.85759600     0.97556252     0.42082521    -0.65227163
O       2.97896502     1.46916602     3.23765099     0.06473500    -0.44539699     0.00061269
O       5.87244600     6.08699901     3.19574697    -0.00156606    -0.93441200     0.70664740
O       0.01304898     1.37224699     3.17757900    -0.12864597     0.66535187    -0.06666564
O       2.89036302     7.67419701     1.16548702     0.50092282     0.38284614     1.21434867
O       2.97327398     3.38061002     1.49256602    -0.18511872    -1.78141983     1.13484319
O       0.01524703     7.77938702     1.42473100    -0.58163749     1.12904972    -1.24046235
O       5.92138701     3.34055098     1.47977697     0.02673048    -1.07268289     0.51613990
