# total energy = -4977.95727489 eV

CRYSTAL
PRIMVEC
        4.45021927     0.00000000     0.00000000
        0.00000000     2.32427560     0.00000000
        0.00000000    -0.00012259     6.19806739
PRIMCOORD
6 1
Ti      2.22510943     1.16207645     3.09903369     0.00000000     0.00000000     0.00000000
Ti      0.00000000     0.00000000     0.00000000     0.00000000     0.00000000     0.00000000
O       2.22510943     0.45294318     1.20791206     0.00000000    -0.34869083     1.36295283
O       2.22510943     1.87120977     4.99015538     0.00000000     0.34869083    -1.36295283
O       0.00000000     0.70908512     4.30694701     0.00000000     0.34865997     1.36570854
O       0.00000000     1.61506784     1.89112037     0.00000000    -0.34865997    -1.36570854
