# total energy = -19075.04761624 eV

CRYSTAL
PRIMVEC
        5.17600016     0.00000000     0.00000000
        0.00000000     5.50899976     0.00000000
        0.00000000     0.00000000     9.26300011
PRIMCOORD
22 1
Ti      1.85787999     3.41076402     3.28167499     0.49717415     0.62382622    -0.18428826
Ti      3.42969899     2.25665802     5.94857598     0.08314077     0.24409857    -0.61652274
Ti      4.44484802     2.22297001     1.23025201    -0.58903687     0.75459669    -1.66340409
Ti      0.71929301     3.15441601     8.01940801     0.20091019     1.05735243     1.88504201
Ti      1.83315599     0.53169000     1.31038702     0.32202231     0.06085803    -1.99230590
Ti      3.17674602     4.98518699     8.08165598     0.48190976     0.41619902     1.92916087
Ti      0.66577298     0.27460098     6.01931899     0.40207543     0.91165927    -1.23699727
Ti      4.50272302     5.03177697     3.37943398    -0.29160872    -0.92846426     0.90072616
O       3.48569002     3.35019900     4.35802099     0.08847144    -0.33921117     1.08158457
O       0.92162198     1.83971900     0.05837502    -0.67446257     0.40942211    -0.39139224
O       4.31351998     3.65495302     9.08831102     0.05421327    -0.60209139    -0.84919044
O       3.49252201     0.76120502     0.32665101     0.50127017     0.55947585    -1.47218928
O       1.69515301     4.70292099     9.19097998    -0.91712184    -0.64366769    -0.52745352
O       4.23990301     0.61280599     4.89673502    -0.41291161     0.35179621     0.05639177
O       1.09348398     4.86788099     4.37115098    -0.70984919    -0.69392326     1.12415974
O       0.25550498     3.63057801     2.18296099    -0.37658422    -0.74513425     1.52422740
O       0.06379502     2.26613400     6.49885301     0.07884291    -1.14334583    -0.12495643
O       2.62418400     2.10430202     2.11923402     0.57276101     0.36414496     0.63201390
O       2.41603398     3.59622699     7.08901598    -0.41821040    -1.54435863    -1.37703606
O       0.06601899     0.74407899     2.13825800     0.36007285     0.08272193     1.32602175
O       2.43808898     0.75975200     6.85584201    -0.45756911     0.68865712    -0.57272810
O       2.71699201     4.82338401     2.42334197     1.20449029     0.11538807     0.54913642
