# total energy = -19073.99314471 eV

CRYSTAL
PRIMVEC
        7.60600008     0.00000000     0.00000000
        0.00000000     7.60600008     0.00000000
       -1.89786986    -1.89786986     4.85670466
PRIMCOORD
22 1
Ti      3.60127101     6.63912599     1.32745198    -0.63375737    -0.61949288     1.21080389
Ti      4.12523300     2.92529602     1.22551799    -0.88294749     0.01247474    -2.03682739
Ti     -0.12783801     6.71854899     1.24746800     0.55512863    -1.70573526     2.16081838
Ti      0.17834099     2.86092399     1.12860299    -1.39952987     0.50370604     1.10424319
Ti      5.88531220     3.04915821     3.59197479    -0.12420361    -1.96928577     1.32574124
Ti      5.63993425    -1.03626479     3.73786282    -0.28824545     1.02233399     1.02322693
Ti      2.04888224     3.08638922     3.70783079    -2.14630629    -4.35949138    -0.39426159
Ti      1.62075821    -0.97832877     3.96365884     0.15673194     2.41723845    -2.61626993
O       3.86317199     4.75708001     0.74227598    -0.02414910    -0.00973780     1.67210625
O       3.36210803     1.10311501     0.91782698     0.64220190    -0.76369454     1.63347644
O       0.05533702     4.76653699     0.93402901     0.22734705     1.26450500     0.39587033
O       0.42872099     0.86630898     0.84917798    -0.66946795     0.83447421     0.30131129
O       5.19994421     4.76599622     4.19822983     0.56875343     0.96810915    -0.32222105
O       5.48917022     1.22414721     4.22454682     0.24661182    -2.02748169    -1.72517384
O       2.03199921     4.75402925     4.24608582    -0.35152238     4.17706717     1.00125171
O       2.11055525     1.02711621     3.97580880    -0.08722419    -1.45737175     1.05083468
O       3.64805922     3.26244220     2.99851780     2.27928971    -0.62261497    -0.94027000
O       0.09913924     2.98351721     3.41082181     0.25801621     0.65590794    -0.62363313
O       5.50778599     6.59052699     1.90209201    -0.06475017     0.29153595    -1.62256236
O       5.87720701     2.54918202     1.71565900    -0.07713955     0.39935392    -0.26638747
O       1.85287101     6.26402399     2.05705400     1.05698167     1.07227974    -1.38633754
O      -0.18212376    -0.74223576     3.41799481     0.75818107    -0.08408025    -0.94574003
