# total energy = -19932.62750552 eV

CRYSTAL
PRIMVEC
        5.89523002     0.00000000     0.00000000
        2.95264040     5.53614081     0.00000000
        0.00000000     0.00000000    10.91853046
PRIMCOORD
24 1
Ti      3.88646934     3.28071192     4.05069695     1.20996468    -3.32655904     0.71539326
Ti      4.96140124     2.25542903     6.86783363    -1.20996468     3.32655904    -0.71539326
Ti      6.28716476     2.25543100     1.40852472    -2.90506740    -0.82826936     0.91924583
Ti      2.56070601     3.28071020     9.51000591     2.90506740     0.82826936    -0.91924583
Ti      2.41014936     0.51264170     1.40856852     1.20996468    -3.32655904    -0.71539326
Ti      6.43772133     5.02349946     9.50996218    -1.20996468     3.32655904     0.71539326
Ti      1.08438575     0.51263957     6.86778984     2.90506740     0.82826936     0.91924583
Ti      7.76348493     5.02350154     4.05074068    -2.90506740    -0.82826936    -0.91924583
O       2.90555246     1.94936933     5.57164254     1.54391665     2.01347663    -1.17868386
O       5.94231819     3.58677166     5.34688804    -1.54391665    -2.01347663     1.17868386
O       2.12145879     1.94939162     0.11241240     0.85418172    -1.25965924     1.37022006
O       6.72641193     3.58674942    10.80611783    -0.85418172     1.25965924    -1.37022006
O       4.46599810     0.81870123     0.11237696    -1.54391665    -2.01347663    -1.17868386
O       4.38187253     4.71743971    10.80615327     1.54391665     2.01347663     1.17868386
O       5.25009184     0.81867898     5.57167792    -0.85418172     1.25965924     1.37022006
O       3.59777875     4.71746202     5.34685260     0.85418172    -1.25965924    -1.37022006
O       2.01015059     3.36739463     2.94936747     0.67783920     2.46654914     2.32745163
O       6.83772006     2.16874636     7.96916305    -0.67783920    -2.46654914    -2.32745163
O       4.31846382     2.16869466     2.50993249     1.09841193     1.50167573     1.05070741
O       4.52940683     3.36744634     8.40859785    -1.09841193    -1.50167573    -1.05070741
O       0.53383050     0.59932420     2.50989764     0.67783920     2.46654914    -2.32745163
O       8.31404014     4.93681674     8.40863270    -0.67783920    -2.46654914     2.32745163
O       3.05308675     0.59937590     7.96919784    -1.09841193    -1.50167573     1.05070741
O       5.79478389     4.93676504     2.94933262     1.09841193     1.50167573    -1.05070741
