# total energy = -19958.00817603 eV

CRYSTAL
PRIMVEC
        7.60600008     0.00000000     0.00000000
        0.00000000     7.60600008     0.00000000
       -1.89786986    -1.89786986     4.85670466
PRIMCOORD
24 1
Ti      3.99255202     6.59517798     1.20082198    -0.00282641     0.18861388    -1.78406266
Ti      3.78940902     2.67997199     1.17657799     1.17228695     0.04446108    -0.77935668
Ti      0.10668399     6.72476200     1.24399702    -0.92237512    -0.10704792    -0.25529033
Ti     -0.02174998     2.91161298     1.35560601    -2.36596729     0.37001094    -0.08122812
Ti      5.58879921     2.90271020     3.65218479     1.01882469     0.34918294     0.99567858
Ti      5.61874123    -0.75266277     3.66862881     1.28699162    -0.16478515     0.27233983
Ti      1.94015822     2.92214122     3.60470484    -0.26555675    -2.42535182     2.11470511
Ti      1.98618823    -1.07145180     3.43943881    -1.39829960     2.23661735     2.02476043
O       3.85236598     4.53608701     0.86242699    -0.67979839     2.46956247    -0.80474942
O       4.22339501     0.81350397     0.73665802    -1.20980167    -0.42841151    -0.98927730
O      -0.33778903     4.77550501     0.97692502     1.80422629    -0.27238483    -0.44906185
O      -0.27088599     1.08139699     0.93238401     0.82722215    -1.40318676    -2.21428320
O       5.79245721     4.68729825     4.17804780    -0.09245948     2.06877645    -0.21174714
O       5.36919521     1.01238524     3.96601780     1.49519526    -1.85421910     1.09069502
O       1.58225125     4.70914422     3.65253479     1.26048096    -0.15218082     1.64282626
O       2.01574225     0.81134424     4.07583981    -0.61634174     0.03439906     0.63239520
O       3.80533525     2.70498820     3.28282283    -2.95831445     1.04981061    -0.08025393
O       3.84283222    -0.85090278     2.96150280     0.72987835    -0.99540913     3.07120598
O      -0.14289479     2.66590725     3.17749682     0.46286199     0.17966079     1.83714105
O       0.10590022    -0.81682880     3.17895084    -1.27346118     0.03342075     0.61715318
O       5.76955299     6.68480801     1.64121699     0.22194054    -0.47783199     0.47132118
O       5.57843200     2.87507101     1.81508199     0.03668246     0.06689190    -1.84244061
O       2.03098901     6.90654598     1.61673202    -1.17996684    -0.71316849    -1.72952440
O       1.73453899     2.62000001     1.86792298     2.64857791    -0.09743045    -3.54894669
