# total energy = -19922.84864366 eV

CRYSTAL
PRIMVEC
        6.29639651     0.00000000     0.00000000
        0.66849024     6.66784367     0.00000000
        0.00000000     0.00000000    11.28331073
PRIMCOORD
24 1
Ti      2.67828766     3.95135802     4.18602790    -0.08203622    -1.33978539     0.70457817
Ti      4.28659929     2.71648570     7.09728321     0.08203622     1.33978539    -0.70457817
Ti      5.70257922     2.71648797     1.45558258     0.12812120     0.36482836    -0.49716155
Ti      1.26230775     3.95135608     9.82772872    -0.12812120    -0.36482836     0.49716155
Ti      2.34404267     0.61743625     1.45562785    -0.08203622    -1.33978539    -0.70457817
Ti      4.62084429     6.05040774     9.82768346     0.08203622     1.33978539     0.70457817
Ti      0.92806267     0.61743379     7.09723801    -0.12812120    -0.36482836    -0.49716155
Ti      6.03682423     6.05041013     4.18607317     0.12812120     0.36482836     0.49716155
O       2.22823611     2.34786112     5.75778724     1.60488730     1.64458849    -0.27702310
O       4.73665085     4.31998267     5.52552387    -1.60488730    -1.64458849     0.27702310
O       1.39077533     2.34788809     0.11616801    -1.17132279     0.87836090     0.35902229
O       5.57411169     4.31995576    11.16714284     1.17132279    -0.87836090    -0.35902229
O       4.40240585     0.98606063     0.11613143    -1.60488730    -1.64458849    -0.27702310
O       2.56248111     5.68178316    11.16717943     1.60488730     1.64458849     0.27702310
O       5.23986669     0.98603373     5.75782389     1.17132279    -0.87836090     0.35902229
O       1.72502020     5.68181007     5.52548729    -1.17132279     0.87836090    -0.35902229
O       0.63537629     4.05576065     3.04790380     0.46710277     0.43484775     0.86020402
O       6.32951061     2.61208314     8.23540732    -0.46710277    -0.43484775    -0.86020402
O       3.63884387     2.61202104     2.59378764     0.55752310     0.91433270     0.15362553
O       3.32604308     4.05582268     8.68952335    -0.55752310    -0.91433270    -0.15362553
O       0.30113128     0.72183862     2.59375157     0.46710277     0.43484775    -0.86020402
O       6.66375561     5.94600511     8.68955935    -0.46710277    -0.43484775     0.86020402
O       2.99179808     0.72190071     8.23544332    -0.55752310    -0.91433270     0.15362553
O       3.97308888     5.94594308     3.04786779     0.55752310     0.91433270    -0.15362553
