# total energy = -19933.17485268 eV

CRYSTAL
PRIMVEC
        5.99082262     0.00000000     0.00000000
        2.45235381     5.88556989     0.00000000
        0.00000000     0.00000000    10.95211049
PRIMCOORD
24 1
Ti      3.62464770     3.48778338     4.06315488     0.42333795    -2.70999490     0.80132496
Ti      4.81852882     2.39778668     6.88895574    -0.42333795     2.70999490    -0.80132496
Ti      6.16578964     2.39778868     1.41285665    -1.36176678    -0.95231151     0.45097449
Ti      2.27738693     3.48778161     9.53925403     1.36176678     0.95231151    -0.45097449
Ti      2.39847092     0.54499841     1.41290055     0.42333795    -2.70999490    -0.80132496
Ti      6.04470564     5.34057182     9.53921012    -0.42333795     2.70999490     0.80132496
Ti      1.05121000     0.54499624     6.88891177     1.36176678     0.95231151     0.45097449
Ti      7.39196656     5.34057399     4.06319878    -1.36176678    -0.95231151    -0.45097449
O       2.75964864     2.07240927     5.58877817     1.71658481     2.12089067    -0.93349334
O       5.68352783     3.81316080     5.36333244    -1.71658481    -2.12089067     0.93349334
O       1.96283855     2.07243305     0.11275812     0.00588757    -0.82072060     1.43183914
O       6.48033806     3.81313711    10.83935213    -0.00588757     0.82072060    -1.43183914
O       4.45735102     0.87037571     0.11272256    -1.71658481    -2.12089067    -0.93349334
O       3.98582551     5.01519435    10.83938769     1.71658481     2.12089067     0.93349334
O       5.25416118     0.87035197     5.58881367    -0.00588757     0.82072060     1.43183914
O       3.18901524     5.01521816     5.36329689     0.00588757    -0.82072060    -1.43183914
O       1.70932107     3.57993742     2.95843829     0.59757576     2.36300692     2.23070433
O       6.73385539     2.30563265     7.99367232    -0.59757576    -2.36300692    -2.23070433
O       4.17375402     2.30557788     2.51765185     0.99221222     1.71436903     1.02141508
O       4.26942245     3.57999219     8.43445858    -0.99221222    -1.71436903    -1.02141508
O       0.48314425     0.63715227     2.51761683     0.59757576     2.36300692    -2.23070433
O       7.96003227     5.24841779     8.43449354    -0.59757576    -2.36300692     2.23070433
O       3.04324564     0.63720710     7.99370721    -0.99221222    -1.71436903     1.02141508
O       5.39993083     5.24836297     2.95840334     0.99221222     1.71436903    -1.02141508
