# total energy = -19070.41266907 eV

CRYSTAL
PRIMVEC
        7.60600008     0.00000000     0.00000000
        0.00000000     7.60600008     0.00000000
       -1.89786986    -1.89786986     4.85670466
PRIMCOORD
22 1
Ti      3.97151802     6.53131401     1.35044801     0.62771836     1.99028527     1.04093721
Ti      3.51619899     2.75735802     1.18392498     1.43981470    -0.81309188    -0.55365436
Ti      0.02128002     7.00966701     0.99731502    -0.90638053    -4.62436883     0.57686140
Ti     -0.27250898     2.68879998     1.01436802    -2.63656108     2.95710218     0.48176886
Ti      5.67782720     3.14728423     3.47640782    -1.60655878    -2.37004146     1.09625606
Ti     -1.08045178    -0.50533379     3.96580783     0.02362408    -1.51708050    -2.09911085
Ti      1.69734423     2.70163322     3.77924279     0.93562942    -0.62681770     1.61781584
Ti      2.08178325    -1.15865375     3.87203979    -1.08120790     2.84424973    -1.45030070
O       4.01970400     4.74358101     0.92739498    -1.70934586    -1.52173137    -0.69419965
O       3.96245798     0.81729601     1.13521300    -0.80185718    -0.77651998    -1.01738281
O       7.02365200     4.94850802     0.53761599     1.69393929     0.18694189    -0.91169835
O       6.94341503     1.01934498     0.27122202     0.23304719    -2.35945931     1.76120709
O       6.00620423     4.84480024     3.84338579     0.97512877     1.26216684     0.72541826
O       5.50179925     0.92273722     3.98373482    -0.99941414     2.98363160    -1.32143284
O       2.08748921     4.71361524     4.31580682    -0.56066653    -2.17642909    -1.17140815
O       2.10085723     0.80306225     4.17336781    -0.65969389     0.37589131    -1.35477595
O       3.40625321     2.70967920     2.99067280    -0.91021457     0.99568372     1.41007989
O      -0.21813078     2.38574224     3.14101084     2.80130227     1.36043649    -0.38295953
O       6.01732298     6.74352298     2.12869301     0.55431282     0.92232858    -0.68931533
O       5.43535300     2.73703999     1.49856203     1.44785866     0.92641998     1.50297002
O       1.82116700     6.54354801     1.93259501     0.26756581     0.30841319     0.28666165
O       1.60698600     2.41477200     0.72422198     0.87195911    -0.32801041     1.14626249
