# total energy = -19918.75493007 eV

CRYSTAL
PRIMVEC
        4.82768865     0.00000000     0.00000000
        2.20076339     4.64294328     0.00000000
        0.00000000     0.00000000     8.87926033
PRIMCOORD
24 1
Ti      3.05397524     2.75140386     3.29414223     5.72827727    -4.76699749     1.32260475
Ti      3.97447664     1.89153936     5.58511815    -5.72827727     4.76699749    -1.32260475
Ti      5.06016330     1.89154093     1.14545249   -11.94108914     3.43137884     2.92093677
Ti      1.96828867     2.75140247     7.73380803    11.94108914    -3.43137884    -2.92093677
Ti      1.95359365     0.42993230     1.14548808     5.72824308    -4.76586081    -1.32155086
Ti      5.07485825     4.21301106     7.73377244    -5.72824308     4.76586081     1.32155086
Ti      0.86790696     0.42993058     5.58508256    11.94202939    -3.43114873     2.91392717
Ti      6.16054499     4.21301277     3.29417787   -11.94202939     3.43114873    -2.91392717
O       2.30292009     1.63485924     4.53101858    -2.25537613    -0.45466325    -1.42597137
O       4.72553179     3.00808398     4.34824184     2.25537613     0.45466325     1.42597137
O       1.66081367     1.63487799     0.09141698     2.54841772     0.25370396    -2.93592322
O       5.36763827     3.00806531     8.78784321    -2.54841772    -0.25370396     2.93592322
O       3.62515018     0.68661232     0.09138813     2.25435129     0.45390966    -1.42632309
O       3.40330170     3.95633095     8.78787200    -2.25435129    -0.45390966     1.42632309
O       4.26725666     0.68659360     4.53104738    -2.54844883    -0.25320233    -2.93550979
O       2.76119518     3.95634967     4.34821300     2.54844883     0.25320233     2.93550979
O       1.51403011     2.82410133     2.39850974    -0.00055793    -5.11125034    -4.51069235
O       5.51442172     1.81884190     6.48075069     0.00055793     5.11125034     4.51069235
O       3.45136875     1.81879870     2.04114869     2.85190494    -4.05275017    -5.45922665
O       3.57708313     2.82414452     6.83811154    -2.85190494     4.05275017     5.45922665
O       0.41364850     0.50262962     2.04112033    -0.00084666    -5.11083305     4.50951093
O       6.61480333     4.14031361     6.83813990     0.00084666     5.11083305    -4.50951093
O       2.47670152     0.50267282     6.48077895    -2.85245515     4.05312118    -5.45864378
O       4.55175036     4.14027040     2.39848138     2.85245515    -4.05312118     5.45864378
