# total energy = -19067.90469211 eV

CRYSTAL
PRIMVEC
        5.93400000     0.00000000     0.00000000
        0.00000000     9.29699974     0.00000000
        0.00000000     0.00000000     4.64899994
PRIMCOORD
22 1
Ti      4.54962300     6.90688899     2.41522498    -2.66055694    -1.92499208     0.27224547
Ti      4.22148003     2.55451300     2.04608299     0.82399079    -0.98444054     0.19209979
Ti      1.33576901     7.64588798     2.53698401     3.09096337    -0.34472721     0.39181287
Ti      1.48976202     2.05350100     2.49887001     0.70874670     0.40496458    -0.68918574
Ti      2.89307600     4.65494901     4.23499802     3.47874860     2.81214153     0.34667765
Ti      3.15792303     9.08484502     4.47883898     0.84749814     1.01883009     2.11470331
Ti      5.75286501     4.29031699     4.61048801    -0.73822338     0.83608475    -1.03667638
Ti      0.18859200     0.14270799     0.37896500    -1.16843235     1.46405919    -0.25917835
O       4.69723302     5.67098298     0.46268301    -0.12824102    -1.35759517     1.71668122
O       4.52632200     0.77890901     1.05537100    -1.08675300     1.27553452    -0.88990387
O       1.54695100     0.38271797     1.55725598    -0.64350442     2.52320265     0.89850499
O       4.47946298     7.96108299     4.15083502     0.61062129     1.17621817    -2.57679423
O       4.24901301     4.65588100     2.90814300     1.15376677    -3.56222387     0.05164063
O       1.45968999     8.13242799     4.47722700     0.44383659    -0.48583198    -3.91783328
O       1.63720599     3.65310498     3.62201899    -3.19334833    -1.24535773    -0.79430508
O       2.65962898     6.22530901     3.19163998    -0.02556269     0.63939451     0.04257543
O       3.24887902     1.50931200     3.35101599    -0.09751889    -0.50032992     0.34963751
O       0.26296903     6.21437700     2.85656801    -0.04822594    -1.05829474     0.57560053
O       3.07594902     8.08987600     1.57936501     0.76273860    -1.90215733     1.49063489
O       2.75829202     2.83276398     1.10889299    -0.43781558     1.47724098     0.21327720
O       5.77504003     8.04516698     1.50257398    -1.37583664    -1.53533482     1.75023773
O       0.10515398     2.81771799     1.34010598    -0.31689141     1.27361416    -0.24245229
