# total energy = -19944.43692911 eV

CRYSTAL
PRIMVEC
        5.14630137     0.00000000     0.00000000
        2.10664755     5.05588603     0.00000000
        0.00000000     0.00000000     9.40820064
PRIMCOORD
24 1
Ti      3.11368415     2.99611347     3.49037533     2.89835862    -3.55534051     1.21987243
Ti      4.13926485     2.05977270     5.91782541    -2.89835862     3.55534051    -1.21987243
Ti      5.29660344     2.05977442     1.21368743    -6.05831217     0.71256479     1.68140825
Ti      1.95634560     2.99611196     8.19451337     6.05831217    -0.71256479    -1.68140825
Ti      2.06036048     0.46817044     1.21372514     2.89816501    -3.55484917    -1.21727947
Ti      5.19258855     4.58771588     8.19447565    -2.89816501     3.55484917     1.21727947
Ti      0.90302180     0.46816858     5.91778764     6.05813887    -0.71341814     1.68092102
Ti      6.34992722     4.58771775     3.49041305    -6.05813887     0.71341814    -1.68092102
O       2.37062328     1.78026347     4.80093279    -0.11339109     0.92225119    -1.15563185
O       4.88232567     3.27562271     4.60726796     0.11339109    -0.92225119     1.15563185
O       1.68613884     1.78028390     0.09686270     1.21582243    -0.65809312    -0.28511693
O       5.56681023     3.27560236     9.31133773    -1.21582243     0.65809312     0.28511693
O       3.82900198     0.74767957     0.09683216     0.11382715    -0.92179842    -1.15557246
O       3.42394702     4.30820660     9.31136828    -0.11382715     0.92179842     1.15557246
O       4.51348647     0.74765918     4.80096328    -1.21635310     0.65738479    -0.28559027
O       2.73946243     4.30822706     4.60723741     1.21635310    -0.65738479     0.28559027
O       1.46835951     3.07527663     2.54138972     0.20711606    -0.87895997    -0.84081815
O       5.78458943     1.98060955     6.86681102    -0.20711606     0.87895997     0.84081815
O       3.58538341     1.98056250     2.16274057     1.95874245    -1.12439885    -2.04098127
O       3.66756554     3.07532369     7.24546002    -1.95874245     1.12439885     2.04098127
O       0.41503581     0.54733345     2.16271049     0.20745262    -0.87887383     0.84057184
O       6.83791319     4.50855272     7.24549005    -0.20745262     0.87887383    -0.84057184
O       2.61424185     0.54738055     6.86684100    -1.95887743     1.12466290    -2.04104375
O       4.63870710     4.50850563     2.54135970     1.95887743    -1.12466290     2.04104375
