# total energy = -19960.75274275 eV

CRYSTAL
PRIMVEC
        5.93400000     0.00000000     0.00000000
        0.00000000     9.29699974     0.00000000
        0.00000000     0.00000000     4.64899994
PRIMCOORD
24 1
Ti      4.42419201     6.89975102     2.32876900     0.57701953     1.38785295     0.15650259
Ti      4.47081099     2.35132598     2.35990601     0.15615241     0.27205470    -0.39371369
Ti      1.43908197     6.97875602     2.32725101    -0.43903583     0.66076219    -0.31011218
Ti      1.54884402     2.24060199     2.30869498    -0.20949999     1.09213818     0.15052683
Ti      2.98822303     4.62712699     4.58167701    -1.75633973     0.48476317    -0.11077011
Ti      2.96913603     0.05548900     0.02346203     0.73744768    -2.61071017     0.18190073
Ti      5.89823101     4.63531600     0.10585201     1.75138393     0.54462361    -0.52737665
Ti      0.00155700     0.08870101     4.58634599    -0.59739270    -2.18521507    -0.27054803
O       4.41795502     5.51422200     0.92095902    -0.10226207     0.05961516    -0.05132001
O       4.52558798     0.90125299     0.84504802    -0.60163579     0.81748410     0.82871339
O       1.42158298     5.59549601     0.88395900     0.30126527    -0.97356349    -0.48449757
O       1.46897901     0.95539598     0.77435301     0.10514042     0.45059345     1.39027493
O       4.47999401     8.33530598     3.80730500     0.10845766     0.58679101    -0.54159177
O       4.41790798     3.80707301     3.71910100     0.08100803    -0.94912308    -0.17042744
O       1.50278798     8.31851301     3.65981198     0.03676576     1.35511277     1.28053121
O       1.43271502     3.72357302     3.71716897     0.58124179     0.18170893     0.48913379
O       2.99626398     6.06105599     3.25471902    -0.07255296    -0.34371625    -0.00233533
O       2.89412700     1.38009803     3.32490099     0.63888286     0.96900543    -1.66516221
O       0.02825500     6.02150899     3.17565401    -0.62837142    -0.21083825     0.41520683
O       0.05112101     1.55681798     3.22018703    -0.68000999    -1.65664029     0.74772104
O       3.00271402     7.91368300     1.35749798     0.01752310    -0.42727020     0.68947062
O       2.99825702     3.18155799     1.45354899    -0.18171587     0.15731429    -0.33310916
O       0.01853898     7.92904300     1.49637298    -0.18682954    -0.01424880    -0.65910511
O       5.85592598     3.22520701     1.47730000     0.36335692     0.35150619    -0.80991219
