# total energy = -19960.39215719 eV

CRYSTAL
PRIMVEC
        5.93400000     0.00000000     0.00000000
        0.00000000     9.29699974     0.00000000
        0.00000000     0.00000000     4.64899994
PRIMCOORD
24 1
Ti      4.47310698     6.85755401     2.18919798    -1.33315451     1.67813754     1.80139448
Ti      4.43935902     2.53093302     2.32610100     1.92195175    -2.76760692    -0.06586192
Ti      1.47303298     6.89141500     2.19880302     1.41993107     1.24091563     1.63633499
Ti      1.49242299     2.33401299     2.42802101    -0.99042787    -1.84493381     0.54750737
Ti      3.02094602     4.62299300     0.07181401    -1.77461874     0.52158344    -0.79212761
Ti      2.96375599     0.03125601     0.07872898     0.40079502    -0.39863735    -0.98046561
Ti      0.00488298     4.65164901     4.54444500     1.31416639    -0.46082799     0.02419538
Ti      5.92218501     9.27795100     0.12774302    -0.48173672     0.30867956    -1.65917077
O       4.43639600     5.58853399     0.84906098     0.41746426    -0.64586213    -0.63459375
O       4.42989400     0.90917398     1.08868699    -0.02211612    -0.51519450    -0.62495339
O       1.46134203     5.53081298     0.80551102    -0.11681709     0.06585035     0.12114168
O       1.42875698     0.83961300     1.05463301     0.63225379     0.42355726    -0.04993547
O       4.48809201     8.47554599     3.76125499    -0.29146602    -0.17927898     0.08064037
O       4.34853300     3.81165299     3.71573998     0.65993815     0.11729017     0.13833569
O       1.47787299     8.33229999     3.71485901    -0.08199148     0.64793238     0.42648010
O       1.48752101     3.76888102     3.71695699     0.05577239     0.30763621     0.17379147
O       2.96039698     6.04939202     3.19197802     0.44174294    -0.19756415    -0.13537866
O       2.89757502     1.48031901     3.43515200    -0.16683843     0.74716080    -1.11494259
O       0.01645101     5.91457401     3.04280999    -0.29107650     0.20341187     0.67213984
O       5.89731601     1.58016999     3.30582399     0.51824383     0.13188427    -0.15742408
O       3.01184201     7.74026701     1.33269200    -0.25559372     0.41016335     0.16874413
O       3.02206899     3.15065102     1.37123701    -1.40692051     1.17020590    -0.50953087
O       0.04716202     7.85075599     1.35691699    -0.58597674    -0.77579750     0.71716656
O       5.88705002     3.32626299     1.36882300     0.01647512    -0.18870593     0.21651293
