# total energy = -19947.40184242 eV

CRYSTAL
PRIMVEC
        6.14879408     0.00000000     0.00000000
        0.00002420     4.36278414     0.00000000
        0.00000000     0.00000000     9.55294219
PRIMCOORD
24 1
Ti      2.22865655     2.58538183     3.54407342     0.01758712     1.37136163    -1.92064023
Ti      3.92016183     1.77740232     6.00886888    -0.01758712    -1.37136163     1.92064023
Ti      5.30294760     1.77740384     1.23235954     0.01955633    -1.37210648     1.92275727
Ti      0.84587079     2.58538051     8.32058281    -0.01955633     1.37210648    -1.92275727
Ti      2.22864445     0.40398986     1.23239784     0.01766580     1.37180874     1.92107629
Ti      3.92017393     3.95879444     8.32054451    -0.01766580    -1.37180874    -1.92107629
Ti      0.84585869     0.40398823     6.00883053    -0.01963192     1.37171721     1.92252742
Ti      5.30295969     3.95879606     3.54411171     0.01963192    -1.37171721    -1.92252742
O       1.94614072     1.53621048     4.87479329     1.40539919    -1.00635715     1.53818952
O       4.20267766     2.82657371     4.67814900    -1.40539919     1.00635715    -1.53818952
O       1.12830944     1.53622806     0.09835290    -1.40465228    -1.00712308     1.53842760
O       5.02050905     2.82655613     9.45458908     1.40465228     1.00712308    -1.53842760
O       4.20266562     0.64518159     0.09832188    -1.40475899     1.00642991     1.53829082
O       1.94615277     3.71760255     9.45462010     1.40475899    -1.00642991    -1.53829082
O       5.02049695     0.64516406     4.87482425     1.40464869     1.00712051     1.53868677
O       1.12832138     3.71762019     4.67811799    -1.40464869    -1.00712051    -1.53868677
O       0.22341475     2.65369263     2.58048803     0.38140350    -0.13942043     1.17307191
O       5.92540363     1.70909157     6.97245427    -0.38140350     0.13942043    -1.17307191
O       3.29781867     1.70905089     2.19601351     0.38308474     0.13987732    -1.17384350
O       2.85099972     2.65373331     7.35692863    -0.38308474    -0.13987732     1.17384350
O       0.22340265     0.47230050     2.19598296     0.38184470    -0.13945592    -1.17405279
O       5.92541573     3.89048364     7.35695912    -0.38184470     0.13945592     1.17405279
O       2.85098767     0.47234119     6.97248470    -0.38277647    -0.13994108    -1.17307962
O       3.29783071     3.89044301     2.58045754     0.38277647     0.13994108     1.17307962
