# total energy = -19519.99662069 eV

CRYSTAL
PRIMVEC
        5.17575250     0.00001323     0.00000000
        0.00001429     5.50856584     0.00000000
        0.00000000     0.00000000     9.26345890
PRIMCOORD
23 1
Ti      1.85510922     3.38329157     3.39717562    -0.04977863    -0.02376369     0.04613821
Ti      3.36950700     2.17410893     5.77492786     0.02057706     0.02155897    -0.03991536
Ti      4.56513436     1.94636907     1.42191994     0.00765289    -0.03687992     0.05427524
Ti      0.85459147     3.29949141     7.94807118    -0.00511213    -0.02309597    -0.03512411
Ti      2.01568282     0.51532390     1.23820475     0.01516463    -0.02276816     0.04881961
Ti      3.16658821     5.16452909     7.92764715     0.00883251    -0.04213525    -0.07514566
Ti      0.64065089     0.71326287     5.65375492    -0.03484695     0.03341535    -0.03676499
Ti      4.55842195     4.83829032     3.56214070    -0.00264592     0.03241262     0.01111180
O       1.55099048     1.95356668     4.66320094    -0.01699474    -0.04235071    -0.03121886
O       3.55769732     3.53830932     4.51624389     0.02297924    -0.02636436    -0.01521168
O       0.73619150     2.10481616     0.10568905     0.02195234     0.00151592    -0.01284909
O       3.51914128     0.90850641     0.05777291    -0.00721375    -0.04078851     0.07136357
O       1.73251034     4.68746296     9.15498124    -0.07512638    -0.01350344    -0.03321249
O       4.08239857     0.78014285     4.70315102    -0.02615918    -0.03089542    -0.01793114
O       1.00783097     4.62969407     4.61665441     0.04267699     0.02079560    -0.01215721
O       0.16897211     3.35211447     2.41633808    -0.00825067     0.00539932    -0.04994884
O       4.94984694     2.13199274     6.82903987     0.02188627     0.00843194     0.03936746
O       2.76532475     2.14632728     2.08765442     0.08091188     0.02700533     0.05481671
O       2.49385272     3.38891108     7.14777578    -0.00452514     0.06573670    -0.00410143
O       0.25908671     0.53458020     2.18115395    -0.04139812     0.05305422     0.00629998
O       4.90546689     4.75420995     7.38953431    -0.01145195     0.04254637    -0.02686110
O       2.32255022     0.70833235     6.74054257     0.04971024     0.01759021     0.06478771
O       2.80564117     4.88042150     2.45984842    -0.00884023    -0.02691766    -0.00653857
