# total energy = -19517.75679952 eV

CRYSTAL
PRIMVEC
        5.17600016     0.00000000     0.00000000
        0.00000000     5.50899976     0.00000000
        0.00000000     0.00000000     9.26300011
PRIMCOORD
23 1
Ti      1.80375902     3.22567698     3.40715900     0.24238544    -0.46393903     2.32933934
Ti      3.38061103     2.26751801     5.89183802     0.41220738     0.73604900    -2.89988482
Ti      4.32516400     2.02689000     1.43595099     1.32721603     0.02571310    -0.07390227
Ti      0.92335101     3.32375601     7.79962302    -0.86208890     0.58573403     0.58130067
Ti      1.98790900     0.28657001     1.31239498    -0.91943557     0.01240326    -0.43633771
Ti      3.21953497     5.36507900     7.84886000     1.45683953    -3.22868816     2.20013004
Ti      0.80483298     0.53594903     5.90883101    -1.76304414    -0.44453979    -2.91012605
Ti      4.45378201     4.84511801     3.36264398     0.60829135     0.35026563     2.99673420
O       1.61742598     1.98649203     4.86383300     0.25220115    -0.46153453    -0.11577245
O       3.52920701     3.54272400     4.46696202     0.26901385     0.00916110     0.02146203
O       0.25199299     2.64569400     0.09800601     0.31561151    -0.27573395    -0.25451334
O       3.48870199     0.92116001     0.14217098    -0.58842777    -0.31335280    -0.12849658
O       1.75103498     4.73669800     9.05798202     0.50353274    -0.01714669    -0.52020532
O       4.30869701     0.75153197     4.86238400    -0.45837053    -0.25346484    -0.16027672
O       1.02724999     4.71794698     4.40381001    -0.23501666     0.16609024     0.56039400
O       0.13807002     3.30812602     2.54769000    -0.06723592    -0.03998427    -0.24055790
O       5.01061301     2.01926403     6.83322598    -0.06767300     0.06091306     0.57825443
O       2.64798100     1.74847302     2.33641900    -0.19577569     1.10724727     0.06370887
O       2.57224399     3.73135198     6.89939002    -0.00417239    -0.24509050     0.66519297
O       0.11196898     0.57718400     2.08606800     0.85178211    -0.09147063    -0.58808402
O       4.99193702     4.70082402     7.27292502    -0.09640535     0.99239374    -0.38132662
O       2.32669997     1.06717297     7.03231501    -1.38466066     1.88872408    -0.84296297
O       2.82026301     4.51709098     2.29530399     0.40322523    -0.09974907    -0.44406953
