# total energy = -19515.62753036 eV

CRYSTAL
PRIMVEC
        5.17600016     0.00000000     0.00000000
        0.00000000     5.50899976     0.00000000
        0.00000000     0.00000000     9.26300011
PRIMCOORD
23 1
Ti      1.90112399     3.19587101     3.46505703     0.28868151     0.16933703     2.10130040
Ti      3.39139799     2.30704300     5.86561400     2.06027458     0.20666432    -2.38122165
Ti      4.24361900     1.97873598     1.52307500     1.42038281     0.06546417    -1.38376772
Ti      0.81498800     3.39311400     7.83852898    -1.95577642    -0.09994987     0.81802274
Ti      1.94535400     0.08647402     1.35963897     2.18318261     0.70649390    -0.22551206
Ti      3.19647999     5.33776102     7.87025099    -0.78527022    -0.15542067     1.73020215
Ti      0.86687499     0.58936100     5.95415599    -2.24855010    -0.15332111    -2.67885266
Ti      4.60719701     4.82203598     3.21341499    -1.32619247     2.03409020     3.12759338
O       1.73630702     1.87040800     4.91222398     0.80052844     0.60840422    -2.51851347
O       3.52543901     3.60608297     4.56321502    -0.43228462     0.85696546    -1.38744928
O       5.07718001     2.53657802     9.17146202     0.35035536     0.43143616     0.34695842
O       3.54095999     0.60433502     0.23602999    -0.62416355     0.67186627     1.09569582
O       1.46421202     4.80907299     9.13668999     0.24450583    -0.76347497    -1.61162334
O       4.28794300     0.88421899     4.90149200    -0.22719099    -0.82997041    -0.27218891
O       0.90933702     4.76803202     4.34875398     1.35155384    -0.12257096     1.27205196
O       0.19678499     3.43562800     2.46419599     0.98647326    -3.04898984    -1.36039947
O       0.09762198     2.28069801     6.42213098    -1.15675980     1.32699826     2.64351463
O       2.49613200     1.85996802     2.32940502     0.83906440    -1.03958121    -1.15027290
O       2.48411899     3.80206001     7.05877202     0.20919043    -0.45552252    -0.52204058
O       0.31385101     0.55365000     1.98347900    -2.29262860     1.21765614     0.93413509
O       4.83529600     4.85960101     7.35888500     1.97664093     0.14713915    -1.19920255
O       2.40848702     1.28427000     7.08467799    -0.97023699    -1.49764012     1.69528681
O       3.01669303     4.31426798     2.12376002    -0.69178050    -0.27607359     0.92628345
