# total energy = -19518.16053772 eV

CRYSTAL
PRIMVEC
        5.93400000     0.00000000     0.00000000
        0.00000000     9.29699974     0.00000000
        0.00000000     0.00000000     4.64899994
PRIMCOORD
23 1
Ti      4.42862799     7.01679302     2.21532600     0.08138033     0.78463053     0.30619639
Ti      4.45971901     2.32466698     2.28793700     1.02161331     0.13262758     0.23195087
Ti      1.38842500     6.99081100     2.31543898    -0.47149550     0.29667636    -0.03139498
Ti      1.52871698     2.30936302     2.40309999    -1.06461888     0.06329030    -0.05942567
Ti      2.98129398     4.55265799     0.14361998    -0.20285754    -0.68505809    -0.35195998
Ti      2.96750198     0.09744699     4.64735098     0.06956816    -0.70267067     0.43186630
Ti      5.93159098     4.64226399     0.07796501     0.26048987    -0.74077083    -1.00994924
Ti      0.01472198     9.28404199     4.52958898    -0.37405631    -0.00223146     0.20092279
O       4.45073400     5.52746302     0.88444299    -0.71155795     0.72633408     0.47482328
O       4.45832299     0.87556001     0.89186401     0.45523712     0.73132614     0.17491967
O       1.50529401     5.48044800     0.94152899     0.36551639     1.33022088     0.16801266
O       1.54153101     0.93784301     0.93971502    -0.45010083    -0.25709884    -0.57845960
O       4.45954502     8.36650299     3.68889599     0.05653189    -0.05683220    -0.16216365
O       4.47692902     3.74794201     3.72769801    -0.53733813    -0.03416432     0.14442817
O       1.51641202     8.43984801     3.66619899    -0.16445630    -0.80459232    -0.22592626
O       1.46243599     3.62077600     3.85284399     0.40225027     0.77116386    -0.38159607
O       3.01356802     1.48437801     3.28751599     0.18047994    -0.10063044    -0.39522241
O       5.86447601     6.05758803     3.23707699     0.73362676     0.29257571    -0.31625635
O       0.03853897     1.32507798     3.12060502    -0.61156103     0.20738552     0.58879647
O       2.96825902     7.91987099     1.28224500    -0.09564327    -1.37896284     1.38228342
O       2.92441600     3.27820300     1.45303299     0.79350572    -0.50775450     0.23484696
O       5.89084401     7.82239400     1.38272798     0.61621524     0.58374502    -0.74487869
O       0.02670800     3.33749800     1.50665701    -0.35272926    -0.64921022    -0.08181408
