# total energy = -19961.29686006 eV

CRYSTAL
PRIMVEC
        5.93400000     0.00000000     0.00000000
        0.00000000     9.29699974     0.00000000
        0.00000000     0.00000000     4.64899994
PRIMCOORD
24 1
Ti      4.44369198     6.86163502     2.28967101    -0.22054803     0.82942533     0.47604610
Ti      4.45034199     2.32249598     2.33735199     0.09297472    -0.40236545     0.58703809
Ti      1.48845702     7.01238899     2.34697101     0.28935514     0.28983851    -0.07560743
Ti      1.46099399     2.41317299     2.32071397    -0.07020991    -1.23584593     0.02826723
Ti      2.94947100     4.66506100     0.02384399     0.13341614    -0.54735361    -0.10616809
Ti      3.00051602     9.27585001     4.60133002     0.05859752     0.19921763    -0.07665824
Ti      0.01355800     4.65767200     0.02195699    -0.28931169    -0.27192434    -0.30017641
Ti      5.92839898     9.23748302     0.08707400     0.15364430     0.56966077    -0.45207184
O       4.39615699     5.58816600     0.83305099     0.47973075    -0.12887454     0.34456318
O       4.45522000     0.92322200     0.78859698    -0.10555617     0.21338313     0.66826698
O       1.51809899     5.60448599     0.90436302    -0.27652148    -0.24682985    -0.22095220
O       1.47150001     0.91002702     0.95232198     0.08647240    -0.20997924    -0.66036469
O       4.47510399     8.40859899     3.65614902    -0.25983013    -0.10330902     0.60724208
O       4.48372799     3.71898299     3.71674399    -0.25627326     0.47730774     0.58253017
O       1.44574199     8.38305100     3.75040702     0.18279470    -0.15209315    -0.38310814
O       1.45748999     3.70055201     3.84486003     0.26807848     0.11387137    -0.50935835
O       2.93270201     6.16204301     3.26814498    -0.06107606    -0.80116530    -0.10646351
O       3.00047300     1.43335400     3.22259902    -0.26947562     0.10739682    -0.23498992
O       5.90721898     5.95553598     3.17886903     0.39583562     0.68064968    -0.10472210
O       5.92849100     1.40504302     3.12675798     0.32200662     0.25881865     0.25071170
O       3.00363701     7.84005598     1.36852502    -0.60019289     0.18122659     0.16395057
O       3.02090501     3.26520900     1.39432199    -0.52006340     0.14346452     0.09326963
O       5.86413501     7.84652300     1.41489101     0.55646432     0.07214801    -0.07727222
O       0.03401599     3.35067801     1.49987999    -0.09031209    -0.03666806    -0.49397286
