# total energy = -19517.92992699 eV

CRYSTAL
PRIMVEC
        5.93400000     0.00000000     0.00000000
        0.00000000     9.29699974     0.00000000
        0.00000000     0.00000000     4.64899994
PRIMCOORD
23 1
Ti      4.47032499     7.07121901     2.17877800    -0.42912165     0.88821980    -0.15058828
Ti      4.49319201     2.31807100     2.24859399     0.43916618    -0.50135502     0.88463182
Ti      1.32896903     7.02723898     2.28549897     0.54584592    -0.21519267    -0.78126958
Ti      1.54707398     2.33382799     2.47302098    -0.61371947    -1.19015561    -0.51976284
Ti      2.94432301     4.53703498     0.18879801     0.93064379    -0.41927740    -0.05944958
Ti      2.98612399     0.06913801     4.62235301    -0.05752717     0.15075129     1.29507286
Ti      5.92918798     4.58878698     0.12364999    -0.70247064    -0.42227943    -0.98854917
Ti      0.06153702     9.27587599     4.49246799    -0.54891556     0.87284768     0.78762689
O       4.52817698     5.54965301     0.98051501    -1.03298453     0.08919906    -0.50949359
O       4.41166501     0.95593499     0.94740402     0.08637830    -0.56160833    -0.77993158
O       1.48523099     5.55001899     0.90272098     0.28765076     0.33218537    -0.13521077
O       1.55349301     0.93105499     0.92770598    -0.84136143    -0.30832038    -0.63370183
O       4.34253102     8.50818998     3.69172999     1.24363046    -1.60053159    -0.79020751
O       4.45366401     3.67003299     3.75465398    -0.02284092     1.01460808     0.63185835
O       1.40466899     8.30161803     3.61127002     0.81771138     0.93928630     1.27851135
O       1.52177899     3.62143398     3.89117399    -0.02175437     0.75258017    -0.60326253
O       2.99058702     1.41456599     3.29232098    -0.14306549     0.44599478    -0.63291045
O       5.84074998     6.16281699     3.14927002     0.13126772    -0.84973500     0.80341733
O       0.00173602     1.27806101     3.11931801     0.26044745     0.79948405     0.42833669
O       2.90765801     7.83556802     1.35184499     0.42897355    -0.58316729     0.48671284
O       2.98725500     3.28838300     1.51749202    -0.40277040     0.04315084    -0.00996380
O       0.01949801     7.91049100     1.30498698    -0.60486587     0.06899198    -0.14216637
O       0.03541402     3.23414402     1.44207802     0.24968146     0.25432333     0.14029924
