# total energy = -19946.85329142 eV

CRYSTAL
PRIMVEC
        5.67852096     0.00000000     0.00000000
        1.77323035     5.77767441     0.00000000
        0.00000000     0.00000000    10.28220271
PRIMCOORD
24 1
Ti      3.10900536     3.42384453     3.81462387     0.51666877    -2.36279249     0.97051647
Ti      4.34274585     2.35383001     6.46757890    -0.51666877     2.36279249    -0.97051647
Ti      5.61977377     2.35383199     1.32643643    -1.32119142    -0.63842572     0.38342130
Ti      1.83197753     3.42384276     8.95576645     1.32119142     0.63842572    -0.38342130
Ti      2.22239032     0.53500742     1.32647766     0.51666877    -2.36279249    -0.97051647
Ti      5.22936092     5.24266728     8.95572523    -0.51666877     2.36279249     0.97051647
Ti      0.94536237     0.53500527     6.46753767     1.32119142     0.63842572     0.38342130
Ti      6.50638887     5.24266944     3.81466509    -1.32119142    -0.63842572    -0.38342130
O       2.42167226     2.03441742     5.24692934     1.44209965     1.85737615    -0.79679699
O       5.03007896     3.74325718     5.03527343    -1.44209965    -1.85737615     0.79679699
O       1.66639764     2.03444073     0.10586106    -0.21726910    -0.37027884     0.99125191
O       5.78535365     3.74323392    10.17634142     0.21726910     0.37027884    -0.99125191
O       4.14346390     0.85441990     0.10582770    -1.44209965    -1.85737615    -0.79679699
O       3.30828733     4.92325470    10.17637478     1.44209965     1.85737615     0.79679699
O       4.89873858     0.85439664     5.24696270     0.21726910     0.37027884     0.99125191
O       2.55301260     4.92327802     5.03524007    -0.21726910    -0.37027884    -0.99125191
O       1.28489302     3.51430914     2.77747947     0.36638491     1.40678553     1.34189858
O       6.16685820     2.26336546     7.50472330    -0.36638491    -1.40678553    -1.34189858
O       3.74022013     2.26331158     2.36365461     1.04561148     1.12794929     0.30893899
O       3.71153109     3.51436301     7.91854799    -1.04561148    -1.12794929    -0.30893899
O       0.39827790     0.62547187     2.36362177     0.36638491     1.40678553    -1.34189858
O       7.05347327     5.15220273     7.91858083    -0.36638491    -1.40678553     1.34189858
O       2.82491602     0.62552574     7.50475608    -1.04561148    -1.12794929     0.30893899
O       4.62683520     5.15214886     2.77744663     1.04561148     1.12794929    -0.30893899
