# total energy = -4989.94936409 eV

CRYSTAL
PRIMVEC
        3.91343930     0.00000000     0.00000000
       -0.00000790     3.54073119     0.00000000
       -1.95674726    -1.77040114     4.76851112
PRIMCOORD
6 1
Ti     -0.00017107     2.65568144     1.19212755    -0.00059290    -0.00339720     2.80409063
Ti      1.95685489    -0.88535128     3.57638301     0.00059290     0.00339720    -2.80409063
O       0.00003976     0.88517613     0.77675141     0.00044326     0.00166865    -0.01432439
O       1.95664391     0.88515393     3.99175924    -0.00044326    -0.00166865     0.01432439
O      -0.00002007    -0.88516375     3.16100687    -0.00040829    -0.00027999     0.26568376
O       1.95670374     2.65549376     1.60750378     0.00040829     0.00027999    -0.26568376
