# total energy = -4987.05041828 eV

CRYSTAL
PRIMVEC
        3.36436577     0.00000000     0.00000000
        0.00000000     3.51430451     0.00000000
        0.00000000    -0.00006142     4.57591692
PRIMCOORD
6 1
Ti      1.68218274     1.75712149     2.28795841     0.00000000     0.00000000     0.00000000
Ti      0.00000000     0.00000000     0.00000000     0.00000000     0.00000000     0.00000000
O       1.68218274     0.68487421     0.89177879     0.00000000    -1.21229539    -1.20390150
O       1.68218274     2.82936878     3.68413798     0.00000000     1.21229539     1.20390150
O       0.00000000     1.07222271     3.17973820     0.00000000     1.21197194    -1.20302784
O       0.00000000     2.44202028     1.39617862     0.00000000    -1.21197194     1.20302784
