# total energy = -19961.08063354 eV

CRYSTAL
PRIMVEC
        7.60600008     0.00000000     0.00000000
        0.00000000     7.60600008     0.00000000
       -1.89786986    -1.89786986     4.85670466
PRIMCOORD
24 1
Ti      3.79100402     6.68467302     1.29218200     1.52871346     0.27807982    -0.10527052
Ti      3.77518199     2.89179899     1.16078602     2.11914901     0.16898376     1.44015409
Ti      0.06961501     6.54289802     1.26411999    -1.64057654    -0.16089121    -1.76869723
Ti      0.10647099     2.79380002     1.18380898    -2.19379304     0.37349118    -1.06300243
Ti      5.73112720     2.85033822     3.60000680    -1.68220657    -0.66857372    -0.57914274
Ti      5.66977323    -1.06957877     3.64489283    -1.66492104     0.24399444    -0.24472875
Ti      1.88214023     2.96629022     3.65494583     1.56942561     0.60088683     0.30618636
Ti      1.77312723    -0.89375376     3.66282480     2.26080682    -0.81342227     0.63950378
O       3.82488099     4.87188400     0.77508698    -0.66975231    -1.20427303    -0.50130617
O       3.87143801     0.98094201     0.81705798    -0.73176606     0.10140872    -0.62782814
O       0.06675201     4.74556601     0.71063202     0.51626999    -0.37026008     0.79866464
O       0.01072499     0.88864101     0.79679700     0.42766255    -0.29204812    -0.02876886
O       5.43697720     4.66441223     4.02256881     0.86215214     2.11001413     0.63502209
O       5.60839920     0.94855022     4.05600879     0.91310886    -0.82339069     0.15870449
O       2.11285622     4.85639324     4.02279783    -1.13818305    -0.13475208     0.08464280
O       1.93301221     1.05537920     4.10634180    -0.91438104    -0.85389530    -0.76070949
O       3.81135924     2.87586822     3.28315679    -1.47772538    -0.16101668    -1.09296839
O       3.78115624    -0.84607378     3.21163282     0.01614988     0.20615447    -0.03757849
O      -0.09752578     3.11377324     3.12414882     2.62760567    -0.40477329     0.47612914
O      -0.04848576    -1.07077080     3.17734383     0.63999949     0.39689800     0.99539807
O       5.69967698     6.46744703     1.60448902     0.18861106     0.53988173     0.89233382
O       5.69783000     2.90609302     1.58326198    -0.50558834    -0.35644476    -0.10085850
O       1.92817701     6.44203900     1.65177101    -0.92962589     0.96964332     0.19580295
O       1.91957502     2.75231602     1.61563101    -0.12113526     0.25430508     0.28831770
