# total energy = -19953.56188371 eV

CRYSTAL
PRIMVEC
        5.23365987     0.00000000     0.00000000
        1.63431368     5.32504554     0.00000000
        0.00000000     0.00000000     9.47668453
PRIMCOORD
24 1
Ti      2.86544273     3.15561708     3.51578237     1.56060620    -2.36594903     1.05408121
Ti      4.00253074     2.16942858     5.96090221    -1.56060620     2.36594903    -1.05408121
Ti      5.17951500     2.16943041     1.22252206    -3.10956634    -0.26525670     1.11309576
Ti      1.68845856     3.15561545     8.25416263     3.10956634     0.26525670    -1.11309576
Ti      2.04828601     0.49309440     1.22256005     1.55993000    -2.36476787    -1.05486411
Ti      4.81968749     4.83195141     8.25412463    -1.55993000     2.36476787     1.05486411
Ti      0.87130173     0.49309241     5.96086421     3.10967638     0.26508958     1.11183875
Ti      5.99667177     4.83195340     3.51582036    -3.10967638    -0.26508958    -1.11183875
O       2.23195600     1.87503910     4.83587958     0.39449196     1.05594166    -0.87254558
O       4.63601748     3.45000661     4.64080500    -0.39449196    -1.05594166     0.87254558
O       1.53585036     1.87506058     0.09756780     0.48463539    -0.62781606     0.41316203
O       5.33212318     3.44998518     9.37911652    -0.48463539     0.62781606    -0.41316203
O       3.81886073     0.78748378     0.09753705    -0.39494525    -1.05588175    -0.87271964
O       3.04911274     4.53756193     9.37914726     0.39494525     1.05588175     0.87271964
O       4.51496643     0.78746234     4.83591032    -0.48541109     0.62765665     0.41286661
O       2.35300700     4.53758343     4.64077425     0.48541109    -0.62765665    -0.41286661
O       1.18423320     3.23899460     2.55988891     0.03739002     0.11275011    -0.05025480
O       5.68374028     2.08605111     6.91679566    -0.03739002    -0.11275011     0.05025480
O       3.44720749     2.08600146     2.17848351     1.34154505    -0.26772393    -0.93247801
O       3.42076598     3.23904425     7.29820091    -1.34154505     0.26772393     0.93247801
O       0.36707640     0.57647177     2.17845324     0.03734709     0.11317975     0.04842186
O       6.50089702     4.74857395     7.29823118    -0.03734709    -0.11317975    -0.04842186
O       2.60360924     0.57652142     6.91682588    -1.34176076     0.26797847    -0.93110916
O       4.26436424     4.74852429     2.55985865     1.34176076    -0.26797847     0.93110916
