# total energy = -19515.61648117 eV

CRYSTAL
PRIMVEC
        5.17600016     0.00000000     0.00000000
        0.00000000     5.50899976     0.00000000
        0.00000000     0.00000000     9.26300011
PRIMCOORD
23 1
Ti      1.79259201     3.24885298     3.43983998    -0.71028371    -0.03826806     2.57371944
Ti      3.33147602     2.29447102     5.82286400    -0.41298771     1.28745185    -3.10465784
Ti      4.33460701     1.99463501     1.54828902     0.37373749    -0.06804684    -1.19570894
Ti      0.87669901     3.12142001     7.77537602     3.18221571     3.15905829     1.89405655
Ti      2.00457200     0.24918099     1.35642999     1.14228345    -0.58750243    -2.00068590
Ti      3.37704802     5.33018198     7.72274500    -0.86300447    -1.14681708     3.51656158
Ti      0.65996801     0.62346298     6.07388600    -0.74390578    -3.36920466    -4.94823771
Ti      4.44255398     5.00359199     3.28655099     0.87437286    -0.51383773     2.68127027
O       1.59170902     2.07958298     5.01913001     0.15580917     0.41169316    -1.57196277
O       3.51178401     3.67489200     4.44722302    -0.33756360    -1.15439592     1.33108940
O       0.24713498     2.67953102     0.02973902     0.11369654    -0.14412144     1.24635532
O       3.59657101     0.89988100     0.17556000    -0.50737012     0.39012083    -0.88517715
O       1.95315799     4.89296399     8.96653300    -0.54548622    -0.89650955    -0.31255447
O       4.22435399     0.85498898     4.89548002    -0.11537598    -0.17990273    -0.68104948
O       0.89288199     4.73133400     4.41105698     0.04028612     0.89921590     0.36624324
O       0.10082499     3.37626801     2.57901100    -0.12050019    -1.20080975    -0.90328801
O       5.04029699     1.97501899     6.92204399    -3.50693562    -0.68380288    -0.08288725
O       2.51923498     1.88779999     2.24851202     0.18548048    -0.07288257     0.23721032
O       2.83874199     3.53223200     7.13228701    -1.16223548     0.36313863     0.81791424
O       0.20711902     0.41917802     1.74209802    -0.07556552     0.29596391     1.35794175
O       5.09734902     4.63393400     7.24837802     0.17789032     1.43042915    -0.63070958
O       2.23098599     0.97387199     6.86626501     2.19807033    -0.01696492     1.77441254
O       2.77957299     4.39245000     2.33960301     0.65737193     1.83599511    -1.47985502
