# total energy = -4985.19962020 eV

CRYSTAL
PRIMVEC
        4.11620306     0.00000000     0.00000000
        1.93702960     3.63194768     0.00000000
       -3.02665501    -1.81599705     5.43610258
PRIMCOORD
6 1
Ti      1.45267508     2.72410064     1.35902528     0.00064560    -0.00064560     0.00000000
Ti      1.57390243    -0.90815013     4.07707663    -0.00064560     0.00064560     0.00000000
O       0.48430005     0.90798230     0.88549658    -0.00047745    -0.00058853    -2.32471007
O       2.54227728     0.90796819     4.55060539     0.00047745     0.00058853     2.32471007
O      -0.48426093    -0.90795878     3.60354786    -0.00058853    -0.00047745    -2.32471007
O       3.51083819     2.72390917     1.83255405     0.00058853     0.00047745     2.32471007
