# total energy = -4989.36718865 eV

CRYSTAL
PRIMVEC
        3.34508113     0.00000000     0.00000000
        0.00000000     4.28828783     0.00000000
        0.00000000    -0.00006297     4.81289327
PRIMCOORD
6 1
Ti      1.67254056     2.14411238     2.40644674     0.00000000     0.00000000     0.00000000
Ti      0.00000000     0.00000000     0.00000000     0.00000000     0.00000000     0.00000000
O       1.67254056     0.83571185     0.93796207     0.00000000     0.09492439     0.00814140
O       1.67254056     3.45251290     3.87493142     0.00000000    -0.09492439    -0.00814140
O       0.00000000     1.30837504     3.34440968     0.00000000    -0.09472642     0.00772771
O       0.00000000     2.97984971     1.46848381     0.00000000     0.09472642    -0.00772771
