# total energy = -19074.81877547 eV

CRYSTAL
PRIMVEC
        7.60600008     0.00000000     0.00000000
        0.00000000     7.60600008     0.00000000
       -1.89786986    -1.89786986     4.85670466
PRIMCOORD
22 1
Ti      3.76072799     6.51995802     1.24980400    -0.85554261    -0.90882463     0.28387252
Ti      3.74251799     2.72759302     1.20808002    -0.00352010     1.66698641    -0.40944782
Ti     -0.03996902     6.64730300     1.24121397     1.09405571     0.14700648    -1.97238164
Ti     -0.08220001     2.94722798     1.12636600    -0.25117347    -0.46072669     0.78125904
Ti      5.65293724     2.96387823     3.51353781     1.40120598     0.88778837     0.74855459
Ti     -1.43231777    -0.76501377     3.68342583    -1.75386684    -1.53068575     0.64299046
Ti      1.87107323     2.68790822     3.57526380    -0.93820926     0.53487707     0.51488725
Ti      1.98026424    -1.12403180     3.83597482    -1.51813799     1.42087107    -2.21033039
O       3.43143300     4.66783802     0.69821599     1.15005796    -0.26644172    -0.11544669
O       3.78804301     0.86109998     0.97222302     0.26825512     0.30576779    -0.11150724
O       0.09700697     4.75916401     0.69592402    -0.64695587     1.38884308    -0.37747022
O       7.20446298     1.07160600     0.60885801     0.85609694    -0.72902243     1.55038247
O      -1.52181079     4.91366922     4.07773379    -0.87340767    -0.17314458    -0.03118004
O       5.48053421     0.98032525     3.98943183     1.11316107     1.23928632    -1.04285731
O       1.81347123     4.71518425     4.24004483     0.50734595    -0.82065170    -1.34687906
O       2.01312922     0.83893623     3.91432380     0.03224139     0.09580397     0.81656955
O       3.78556222     2.96565721     3.13987983    -0.59791952    -0.01309952     0.66378761
O       0.02208521     3.06079021     3.11825384    -0.13693855    -1.38854020    -0.26020165
O       5.56936100     6.64396701     1.85919198     1.13243741    -0.45922285     0.25295834
O       5.63586397     3.35466102     1.60449400     0.13709898    -1.39498982    -0.01033610
O       1.76152602     6.46451898     1.78763700     0.73435979     0.87692417     1.35243136
O       1.90043600     2.74695799     1.51327098    -0.85064388    -0.41880509     0.28034497
