# total energy = -39040.37468120 eV

CRYSTAL
PRIMVEC
        7.60629642    -0.00000847    -0.00005503
       -0.00000847     7.60629642    -0.00005503
       -3.80314186    -3.80314186     9.70738094
PRIMCOORD
46 1
Ti      1.91871386     4.75395149     6.21134617     0.02042048     0.00008125    -0.01678365
Ti      3.80442082     6.62712003     1.18387769    -0.01045539    -0.01621338    -0.00616217
Ti      1.81931894     0.95085656     5.95150054     0.02574395    -0.00028873     0.03436152
Ti      3.80450636     2.88097561     1.18381640    -0.01052893     0.01599381    -0.00589528
Ti     -1.91081024     4.75404500     6.08025248    -0.03364984     0.00001774     0.04816629
Ti     -0.00468644     6.67283833     1.24280785     0.01286323     0.00281150     0.02958081
Ti     -1.81902361     0.95083510     6.02100468    -0.03025547     0.00031625    -0.01142419
Ti     -0.00471083     2.83507656     1.24279846     0.01302521    -0.00262253     0.02983252
Ti      3.79876805     0.95080376     8.63131532     0.00262407    -0.00002340     0.02807389
Ti      5.68655630     2.87043309     3.63525933    -0.01403823     0.02850583    -0.01127249
Ti      3.83282811    -2.85238378     8.53833642    -0.00430274     0.00014141     0.05080450
Ti      5.68652663    -0.96916592     3.63523858    -0.01394361    -0.02837548    -0.01083695
Ti      0.02242288     0.95061616     8.40606079     0.05693556     0.00039132    -0.00576467
Ti      1.91458259     2.79151619     3.59370539     0.00229522     0.02181376     0.01246291
Ti     -0.02432850    -2.85260936     8.52564502    -0.00231579     0.00041832    -0.01643167
Ti      1.91453069    -0.88992669     3.59381170     0.00232068    -0.02295019     0.01224206
O       2.00351509     2.91516200     5.60425704    -0.01646689    -0.02682999    -0.03430599
O       3.83683750     4.75396971     0.73093695     0.01824455    -0.00014244    -0.01670498
O       2.00351578    -1.01359010     5.60423789    -0.01652294     0.02681842    -0.03380565
O       3.77697755     0.95076810     0.79410183     0.00902612     0.00003754    -0.03818321
O      -2.03594481     2.82422729     5.66344787    -0.00071914     0.02425502     0.04882707
O      -0.03453296     4.75395160     0.84002529    -0.01959516    -0.00012187    -0.00851447
O      -2.03593340    -0.92266200     5.66347994    -0.00070628    -0.02417635     0.04886640
O       0.02377211     0.95078644     0.87478468    -0.00821185     0.00012418    -0.02768385
O       3.79806672     2.86841491     8.96684768     0.00123696    -0.01533021    -0.02315768
O       5.73099033     4.75388914     4.11005298     0.02728404     0.00015607     0.01570585
O       3.79804261    -0.96681080     8.96687637     0.00129095     0.01530090    -0.02310214
O       5.65807682     0.95074862     4.01287157    -0.02167826     0.00017201     0.02588459
O       0.00817935     2.83129262     8.87418009     0.01211993    -0.01159825    -0.03939471
O       0.00823539    -0.92970181     8.87417460     0.01210142     0.01163245    -0.03931295
O       1.95810135     0.95080206     3.98757885     0.02219866    -0.00030699     0.07059018
O       2.01879812     0.95087164     7.96624328     0.00777039     0.00009102    -0.09147011
O       3.78166718     3.01648394     3.21160675     0.00177175     0.00169102     0.04392449
O       1.89752529    -2.85235755     8.13109848     0.02555343    -0.00005528    -0.01465092
O       3.78163062    -1.11484815     3.21167619     0.00181366    -0.00182600     0.04364886
O      -1.99978118     0.95088440     7.99658672    -0.04430527     0.00001286    -0.01634837
O       0.01991412     2.94050566     3.27382124    -0.00089449    -0.02387990     0.01185433
O      -1.89917734    -2.85230823     8.11343778    -0.02237966     0.00003291    -0.02564394
O       0.01992171    -1.03895899     3.27387893    -0.00087855     0.02378631     0.01169081
O       3.81525600     4.75396028     6.55313030    -0.02404728     0.00002931    -0.01573464
O       5.69783298     6.67436505     1.66133016    -0.00556567     0.01186359    -0.01260227
O       5.69784420     2.83338505     1.66130518    -0.00558058    -0.01170469    -0.01241869
O      -0.01749768     4.75389756     6.48766622     0.03636904     0.00008767    -0.01588017
O       1.90407687     6.61024657     1.61473598     0.00058081    -0.04542781     0.00193116
O       0.01119778     0.95074723     6.40579107    -0.00708673     0.00003420     0.00288221
O       1.90410494     2.89772429     1.61472423     0.00053916     0.04525683     0.00215536
