# total energy = -19960.10243909 eV

CRYSTAL
PRIMVEC
        7.60600008     0.00000000     0.00000000
        0.00000000     7.60600008     0.00000000
       -1.89786986    -1.89786986     4.85670466
PRIMCOORD
24 1
Ti      3.91454902     6.48392598     1.20414500    -1.25964664     0.75044487    -0.47576790
Ti      3.73042100     2.70754598     1.22539401    -0.19692189    -0.85285246    -0.27659835
Ti      0.08588901     6.87474301     1.15428799     0.65145042     0.17696807     0.22654410
Ti     -0.03455803     2.90451502     1.28576800    -0.03593144     0.05014039    -0.38693960
Ti      5.63692624     3.02027122     3.67180282     1.11441448    -1.23344606     1.00387989
Ti      5.74710222    -0.83262876     3.54459681    -0.80225493     1.40525341     0.53898416
Ti      1.92046124     2.72103524     3.62858983    -2.75872350     0.50771284     0.30187693
Ti      1.85350825    -0.98286779     3.57665283     1.08865819    -0.77469501     0.86127566
O       3.69552398     4.51277300     0.86169398     0.59079370     1.92169309    -0.00302439
O       3.70992099     0.80063502     0.65970702     0.26694591     1.14283058     0.64911251
O       0.15067899     4.65216702     0.77837301    -0.67753170     2.58294919     0.24265335
O       0.12150000     1.05505101     0.76989400    -0.21512634    -2.15789272     0.35856644
O       5.91023322     4.90041920     4.04215482    -0.67183465    -1.43068986     0.24244483
O       5.63297721     0.91301020     4.19954182    -0.43130426     0.66040480    -1.92285318
O       1.80298923     4.61285322     4.13910380     0.15254566    -0.26723182    -0.77724940
O       1.79727724     0.86983421     4.09766483     0.48185345    -0.49202551    -0.20726184
O       3.62562221     2.83016720     3.36547380     3.07406942     0.12155975    -0.41580718
O       3.88294624    -1.05041076     3.24767180    -0.49107574    -0.25724205    -0.40841886
O      -0.14918279     2.81268123     3.14614883     1.33019157     0.02905348     1.95430601
O       0.04688923    -0.79783980     3.14871079    -0.44778941    -0.47658346    -0.77248386
O       5.67409999    -0.53865201     1.54940897     1.38695820    -1.53718422     0.29581813
O       5.61821798     2.81345700     1.85338199    -1.41049203    -0.22514619    -2.37142060
O       2.00688900     6.65396301     1.59347600    -1.16462712    -0.06859860     0.32096584
O       1.86309101     2.61718198     1.62190901     0.42537812     0.42457722     1.02139708
