# total energy = -19959.72079790 eV

CRYSTAL
PRIMVEC
        7.60600008     0.00000000     0.00000000
        0.00000000     7.60600008     0.00000000
       -1.89786986    -1.89786986     4.85670466
PRIMCOORD
24 1
Ti      3.85039400     6.52815397     1.22427998    -0.23584661     0.54723509     2.26753334
Ti      3.69566501     2.75750100     1.11783000     0.86834516     0.40096754     0.99284445
Ti      0.10677601     6.72774402     1.29226799    -0.89507899     0.40513402    -0.77423375
Ti     -0.01906901     2.99207501     1.25772102    -0.88008148    -0.58232500    -2.11250682
Ti      5.71781321     2.95439024     3.60872182     0.36636640    -1.53343838     0.20872429
Ti      5.70262323    -0.96125376     3.62418983    -0.60937199     1.88912518     1.33995148
Ti      1.96187724     2.78775920     3.61712579    -0.07135740    -0.32190686    -0.51162864
Ti      1.83196221    -1.14820377     3.73776683     0.57002510     1.83881381    -1.16406250
O       3.74097100     4.71177502     0.81246499     0.66507341     0.41627770    -1.37631435
O       3.67684000     0.86748402     0.85359799     0.24787321    -0.71401644    -0.03334568
O      -0.01796700     4.82153099     0.70532300     0.01195538     0.20588579     0.52657678
O      -0.12353701     0.97727603     0.74252099     0.71617128     0.82656266     1.20746120
O       5.69450925     4.86304024     4.07533180     0.09256566    -1.39509626     0.34636938
O       5.77144522     1.03921220     3.78110681     0.06549194    -0.15760123     1.67071451
O       1.77307124     4.67874722     3.91740483     0.83476140    -1.75444380     1.74541640
O       1.89182423     0.77468120     4.07255081     0.12377295     2.98981073    -0.30375770
O       3.95563524     2.73950220     3.02631781    -3.54237418     0.11978851     1.50589799
O       3.72057725    -0.96218976     3.19626382     0.67819530    -0.38338813    -0.33275204
O      -0.03093380     3.02250921     3.08529683     2.06415206    -0.73632951     2.00921014
O       0.02047122    -0.88709380     3.31953079     0.21073361    -0.30233228    -0.43732501
O       5.76248799     6.58189700     1.79811101    -1.25715833    -0.19399572    -2.94936547
O       5.77813698     2.99428703     1.67687502    -0.92492642     0.14996376    -2.30203961
O       1.88186299     6.58143900     1.72320698     0.26246448    -0.00696049    -1.02193187
O       1.91300301     3.23221702     1.72394401     0.63824857    -1.70773044    -0.50143678
