# total energy = -19909.81684266 eV

CRYSTAL
PRIMVEC
        6.56571806     0.00000000     0.00000000
        1.04235884     6.90972982     0.00000000
        0.00000000     0.00000000    11.78456376
PRIMCOORD
24 1
Ti      2.99745787     4.09469943     4.37198914    -0.19097441    -1.50771139     0.67354366
Ti      4.61061896     2.81503020     7.41257489     0.19097441     1.50771139    -0.67354366
Ti      6.08716600     2.81503254     1.52024575     0.23184263     0.15004809    -0.46302140
Ti      1.52091084     4.09469736    10.26431842    -0.23184263    -0.15004809     0.46302140
Ti      2.47627859     0.63983464     1.52029301    -0.19097441    -1.50771139    -0.67354366
Ti      5.13179825     6.26989519    10.26427116     0.19097441     1.50771139     0.67354366
Ti      0.99973153     0.63983210     7.41252763    -0.23184263    -0.15004809    -0.46302140
Ti      6.60834531     6.26989773     4.37203640     0.23184263     0.15004809     0.46302140
O       2.44512346     2.43303325     6.01357274     1.67752099     1.76712063    -0.38955647
O       5.16295336     4.47669638     5.77099122    -1.67752099    -1.76712063     0.38955647
O       1.57184266     2.43306118     0.12132868    -1.06262962     0.67680433     0.51279463
O       6.03623423     4.47666851    11.66323501     1.06262962    -0.67680433    -0.51279463
O       4.64177407     1.02183139     0.12129046    -1.67752099    -1.76712063    -0.38955647
O       2.96630275     5.88789824    11.66327324     1.67752099     1.76712063     0.38955647
O       5.51505494     1.02180352     6.01361103     1.06262962    -0.67680433     0.51279463
O       2.09302182     5.88792618     5.77095300    -1.06262962     0.67680433    -0.51279463
O       0.87256944     4.20288936     3.18330473     0.48990589     0.82032619     1.14999034
O       6.73550737     2.70684020     8.60125930    -0.48990589    -0.82032619    -1.14999034
O       3.92974711     2.70677594     2.70901477     0.55078167     1.19810983     0.42055884
O       3.67832971     4.20295363     9.07554905    -0.55078167    -1.19810983    -0.42055884
O       0.35139015     0.74802437     2.70897709     0.48990589     0.82032619    -1.14999034
O       7.25668667     6.16170519     9.07558668    -0.48990589    -0.82032619     1.14999034
O       3.15715042     0.74808864     8.60129685    -0.55078167    -1.19810983     0.42055884
O       4.45092640     6.16164093     3.18326711     0.55078167     1.19810983    -0.42055884
