# total energy = -19073.23051975 eV

CRYSTAL
PRIMVEC
        7.60600008     0.00000000     0.00000000
        0.00000000     7.60600008     0.00000000
       -1.89786986    -1.89786986     4.85670466
PRIMCOORD
22 1
Ti      4.11230600     6.64501198     1.18921898     0.56314585    -0.09756337     0.27334308
Ti      3.51423299     2.61539601     1.17547799    -0.37478290     1.76649508     1.08768477
Ti      0.13165300     6.85129299     1.06771401    -1.68360217    -1.62935753    -0.68541162
Ti     -0.22902199     2.97127602     1.07023702     0.23841077     0.58852419     0.45009646
Ti      5.51227124     2.84198923     3.55237281     0.82820894     0.22601625    -0.03283840
Ti     -1.13651276    -0.78056179     3.87885379    -1.66198998     0.32856705    -3.89519317
Ti      1.82500322     2.78616622     3.84381982    -0.73110811    -0.20557983    -1.27654934
Ti      1.55357021    -0.95462475     3.73842280     1.45588308    -1.55352641    -0.21497541
O       3.78965599     4.53055103     0.76814401    -0.21737425     1.74169318     1.25074265
O       3.99082801     0.91734898     0.80391798    -0.35700809    -3.01263751     1.54050428
O       7.20939502     4.73447398     0.61390303     0.61981761     1.09002396     1.27316473
O       7.37073698     1.03437399     0.44338598    -1.01406095    -1.61836914     4.02312231
O       5.72308424     4.68952820     4.04665383     1.02395713     1.77074357    -0.49824450
O       5.46809124     1.00579625     3.95714482     1.37968686    -0.78003699    -0.92638681
O       2.34809424     4.71612523     4.24022782    -1.04514071     0.04136418    -0.79342396
O       2.10180620     0.71275323     4.15408380    -0.67301273     2.10567539    -1.68111385
O       3.61020024     2.72575323     3.12331383    -0.50559503     0.27069870    -0.50168849
O       0.03386523     2.99212423     3.19895781     1.07745049    -0.51698990     0.45877471
O       5.91135799     6.63673199     1.94884101    -0.55248631     0.57382802     0.15595649
O       5.69156702     2.75137398     1.65871101    -1.91901786    -0.14976167     0.12116328
O       1.80524099     6.72422600     1.86691998     1.41055760    -0.38256924    -0.52687477
O       1.64640298     2.76286099     1.14859901     2.13806076    -0.55723797     0.39814807
