# total energy = -19518.09356558 eV

CRYSTAL
PRIMVEC
        7.60600008     0.00000000     0.00000000
        0.00000000     7.60600008     0.00000000
       -1.89786986    -1.89786986     4.85670466
PRIMCOORD
23 1
Ti      3.76578602     6.50349601     1.29617099     1.22579600     1.06533159    -0.64624496
Ti      3.70508802     2.78505600     1.17417298     0.21190269    -1.02733787    -0.08462918
Ti      0.10024998     6.78006499     1.28599602    -1.49599513    -0.71152761    -1.30394805
Ti     -0.06290801     2.95548299     0.99511602    -0.12086915     0.59005682     0.71402081
Ti      5.62020620     3.01456420     3.56561282     1.20678783    -0.24467450     1.90014493
Ti      5.74565322    -1.00559976     3.59663383    -0.21912081     1.24111309    -1.23013936
Ti      2.07846520     2.79857320     3.66199679    -1.09907039    -0.00910634     0.89024171
Ti      1.92866121    -1.06718176     3.64280280     0.30272051    -0.09654419     1.25229174
O       3.53195900     4.65877401     0.90072202     0.35548703    -0.02016851    -0.79767528
O       3.77277698     0.87618603     1.02753897    -0.03746304     0.84807586    -1.29829831
O      -0.01803600     4.91600098     0.64587798     0.56207164    -0.47232288     1.54342737
O      -0.07205600     1.06591798     0.64350398     0.02495257    -0.65774705     1.73832761
O       5.85189921     4.88498522     4.00548982     0.35170570    -1.91317348     0.10708340
O       5.79776025     1.06279620     4.03443481     0.43239132     0.14129348    -1.45875371
O       1.85379025     4.64861920     4.10320880    -0.15967996     0.24190979     0.21008415
O       1.82501523     0.85423025     3.97985579     0.01117942     0.39776935     1.46412244
O       3.85348122     2.95501922     3.47271782    -1.61352416    -0.35028234    -0.75397422
O       3.82206021    -1.14347478     3.21318379    -0.03964463     0.17779725     0.82209486
O       0.11585722    -1.19859176     3.12085479    -1.41475235     0.82851336     0.96760135
O       5.70291301     6.62110200     1.62790898     0.43106386     0.23209768    -0.14840747
O       5.59168498     2.95795901     1.73693701     1.69736657     0.00593385    -2.45623798
O       1.92522801     6.78722799     1.73307502     0.03267848    -0.12707554    -0.91433939
O       1.75825899     2.86301900     1.83225802    -0.64598374    -0.13993183    -0.51679296
