# total energy = -4946.12699247 eV

CRYSTAL
PRIMVEC
        5.05723644     0.00000000     0.00000000
       -0.00000699     2.43496554     0.00000000
       -2.52864655    -1.21755080     5.44827142
PRIMCOORD
6 1
Ti     -0.00021605     1.82630489     1.36206757    -0.02478956    -0.02294479    43.74464868
Ti      2.52879890    -0.60889031     4.08620318     0.02478956     0.02294479   -43.74464868
O       0.00005382     0.60872971     0.88747876     0.02292731     0.02202948   -35.34675261
O       2.52852887     0.60868477     4.56079203    -0.02292731    -0.02202948    35.34675261
O      -0.00002066    -0.60875739     3.61161437    -0.00136448     0.00071914    -1.14555852
O       2.52860329     1.82617187     1.83665642     0.00136448    -0.00071914     1.14555852
