# total energy = -19961.32530998 eV

CRYSTAL
PRIMVEC
        7.60600008     0.00000000     0.00000000
        0.00000000     7.60600008     0.00000000
       -1.89786986    -1.89786986     4.85670466
PRIMCOORD
24 1
Ti      3.78344901     6.64374100     1.26593502     0.88850622     0.47737304     0.69857516
Ti      3.77496502     2.89466301     1.13615901     1.36328605    -0.26906605     1.84134481
Ti      0.05231801     6.59959798     1.21578500    -0.99130770    -0.98081477    -0.60674046
Ti      0.08829100     2.82661399     1.14742800    -0.99147457     0.90675874    -0.36052228
Ti      5.73926722     2.80561020     3.55689182    -1.81618552     0.44804575     0.07843642
Ti      5.71002621    -1.05252778     3.66561981    -1.58831705    -0.18723757    -0.38565379
Ti      1.82537020     2.92700621     3.68269784     1.63770385     0.87138961    -0.74351035
Ti      1.78647721    -0.90321180     3.70611679     1.26613379    -0.88462282    -0.37942349
O       3.74122601     4.78468702     0.78247202    -0.10886595     0.48712190    -0.37925431
O       3.77399002     0.94806301     0.80707399    -0.10931820     0.52624742    -0.09336759
O       0.04105500     4.69723800     0.80139698     0.58709980     0.00359543    -0.53020152
O       0.02544602     0.82651501     0.81231200     0.27229458     1.40623711     0.11868345
O       5.61220123     4.67579124     4.04819480     0.32821147     0.57147186     0.54327096
O       5.58880424     0.93538921     4.06423479     0.97880314    -0.49266134    -0.08339865
O       2.05316021     4.84787724     4.07786381    -0.60640982    -0.96136360     0.19111068
O       1.88278524     1.04902124     4.03886281    -0.43441992    -0.90467538    -0.27227221
O       3.85999323     2.90457323     3.23200879    -1.00991633    -0.27415272    -0.48432197
O       3.78241420    -0.89712679     3.23907479     0.23586255     0.06980933    -0.33816884
O       0.01881220     3.10653420     3.10538583     0.57095146    -0.85733338     0.80536880
O      -0.09629576    -1.10452077     3.22401483     2.54766464     0.61319908     0.84994480
O       5.80182999     6.53992102     1.68662802    -1.86716280     0.25096496    -0.39351211
O       5.68896501     3.00445998     1.59108502     0.43541005    -0.99608790    -0.02463735
O       1.92770303     6.54512400     1.71347498    -0.55539037     0.43847172    -0.28649402
O       1.96922301     2.86362300     1.59474200    -1.03315911    -0.26267068     0.23474361
