# total energy = -19074.61150055 eV

CRYSTAL
PRIMVEC
        7.60600008     0.00000000     0.00000000
        0.00000000     7.60600008     0.00000000
       -1.89786986    -1.89786986     4.85670466
PRIMCOORD
22 1
Ti      3.63477798     6.93877298     1.22499501    -0.28580059    -0.06423904    -1.27361519
Ti      4.06575999     2.83484502     1.16923899     0.14871472    -0.49952953     1.74551616
Ti     -0.13693202     6.58859602     1.44160901     0.71027882     0.82329196    -1.90704886
Ti      0.01675301     2.91744901     1.23128502    -0.40478898    -2.03135069     0.28206298
Ti      5.75009720     2.77957320     3.67900683    -0.67776618     1.63582463    -1.89410926
Ti      5.75043524    -0.93532677     3.85863382    -0.35503528    -1.48581304     0.98395435
Ti      2.01310324     2.76498225     3.86936781     1.38325427     0.41676312     0.13433068
Ti      1.65674623    -0.72023977     3.67619081    -0.47766409    -1.67468841    -0.06808952
O       3.58863002     4.58078101     0.85356200    -0.27010606     1.56743969     0.13776747
O       3.29956901     1.17126701     0.89875798    -0.08782017     0.44371806     0.32384599
O       0.07052298     4.72387599     1.16143601     0.11505845     1.04074207    -1.03655734
O       0.33565999     0.93914902     0.90569099    -1.06622325     1.10395575    -0.15713483
O       5.56923024     4.71077620     4.22596083     0.10494013    -0.04221907    -0.27864058
O       5.66069122     0.97741620     3.95111781    -0.03256946     0.45721559     1.41320198
O       2.01872220     5.16121225     4.17572879     0.54583229    -2.71890121     0.53531339
O       2.47112520     0.83142223     3.92912282     0.06635660     1.79550588     1.20270106
O       3.73321723     2.83489725     3.22959881     0.82105562     1.02330689    -0.63030772
O       0.39420324     2.87369325     3.12345581    -0.96364597    -0.13951891     0.07432111
O       5.33185201     6.79788599     2.00466101    -0.16880764    -0.26203922    -1.41982077
O       5.84275497     2.66545200     1.42768000     0.01031913     0.15696102     1.25125250
O       1.84220698     6.82739101     1.77946698     0.37253139    -1.27097133    -0.53836400
O      -0.15277977    -0.63561776     3.26579279     0.51188626    -0.27545447     1.11941991
