# total energy = -19072.08311368 eV

CRYSTAL
PRIMVEC
        5.17600016     0.00000000     0.00000000
        0.00000000     5.50899976     0.00000000
        0.00000000     0.00000000     9.26300011
PRIMCOORD
22 1
Ti      1.77594102     3.35229099     3.31590201     0.64074974     0.67447569     1.11510791
Ti      3.60537001     2.33446200     5.94068499    -0.03982846     0.50186564    -0.61666570
Ti      4.32546600     2.07751702     1.67438000     1.35882364     0.50435061    -1.40571261
Ti      1.14304599     2.96774900     8.04705900    -1.36263942     0.01803501     0.30634551
Ti      1.84655798     0.42373598     1.15572502    -0.48881163     0.01076238    -1.82274570
Ti      3.47759202     5.27813899     7.80789697    -1.48947815    -0.54474754     1.23330054
Ti      1.08114601     5.40774699     6.19005199    -1.61395276    -0.66877735     2.01816118
Ti      4.20727400     5.20015901     3.60069600    -0.92253761    -1.26941247     1.25886785
O       3.17603099     3.72403600     4.76050997     0.39879188     0.98318636    -1.92693712
O       0.83306602     2.62608602     0.54681700    -0.84185251    -1.05818649    -0.78086077
O       4.84721900     3.79662600     7.04921402    -0.38778652    -0.47909311     0.26612907
O       3.43780101     0.80339198     0.15628599     0.58972464     0.41092620     0.18948986
O       1.39184798     5.29450702     8.60709702    -0.24285981    -1.05393286     1.90377481
O       3.76726200     1.32207998     4.26476699     0.25090145    -1.14341808     2.19344003
O       0.69330702     4.90685601     4.50428002     0.82083116     0.24904614    -0.06772365
O       0.00835200     3.20230502     2.89538703    -0.67991563     0.07593062    -0.02841584
O       4.72709100     0.87183000     6.96486898     1.39695980     1.08530238    -1.16685446
O       2.57869497     2.01563101     2.28814798    -1.24619102    -0.60108120    -0.42964127
O       2.15901201     3.92671200     6.80964701     1.63822501    -0.37864573     0.33585305
O       4.99328102     0.46395298     2.11764199     2.55037999    -0.40934394    -0.76133812
O       2.34375599     1.13788100     6.87956302     0.24318248     1.91886462    -0.83659897
O       2.72772700     4.62530699     2.37218498    -0.57271704     1.17389312    -0.97697534
