# total energy = -19959.82170198 eV

CRYSTAL
PRIMVEC
        7.60600008     0.00000000     0.00000000
        0.00000000     7.60600008     0.00000000
       -1.89786986    -1.89786986     4.85670466
PRIMCOORD
24 1
Ti      3.73208701     6.57678902     1.26890100     0.64127322    -1.96065998    -0.06535952
Ti      3.71375298     2.73369099     1.20933702    -0.01445989     1.92012421     0.46215005
Ti      0.08599898     6.74809602     1.24511602     0.01497308     0.08585662     0.35777762
Ti     -0.00412901     2.97302998     1.06501901    -0.49156065    -0.55758044     0.62677142
Ti      5.70853223     3.14153425     3.61343182     0.50309180    -1.53604753    -1.32209233
Ti      5.72260020    -0.88334876     3.59798683     0.05844968     0.90023174    -0.04208615
Ti      1.77267621     2.71896722     3.63599382     0.54909631    -0.01397112     0.35538264
Ti      1.88047020    -1.15820077     3.76111079     0.40746524     0.56255784    -1.04511654
O       3.62783899     4.68320998     0.70355798     0.22332610    -0.56372203     0.54973908
O       3.71983899     0.82918201     0.98413803     0.33585330     0.91798341    -1.02907388
O       0.18935602     4.73730201     0.83395302    -0.37020917     2.98368379    -1.33406134
O       0.25362698     1.07997901     0.78903402    -1.46214037    -1.81127471    -0.62567536
O      -1.45222679     4.92238021     4.10547479    -1.52042679    -1.36324260     0.64714999
O       5.77054720     1.06613520     3.88052080    -0.89235182    -0.88090526     0.66420901
O       1.65589521     4.68412022     4.12798779     0.46575577     0.55657076    -0.03671177
O       2.03063620     0.88257923     4.03841380    -0.20659876    -1.26023799     0.47331636
O       3.73492620     2.90282223     3.11803481     1.45739360     0.39873017     0.78197663
O       3.78203023     6.17737423     3.21771482     1.14292803     1.26294331     0.72198120
O      -0.02815175     2.92489824     3.24059184    -0.79836099    -0.54494809    -0.43023416
O       0.01616922    -0.86102780     3.29231881     0.10664271     0.38667709    -1.45293736
O       5.69011898     6.54905103     1.45898602     1.34037314     0.56186750     1.22830874
O       5.76060402     3.23757198     1.56839300    -0.90606249    -1.21382725     0.83045737
O       1.94096601     6.42198700     1.71556402    -1.79780239     0.89864948     0.60067806
O       1.81646198     2.76930102     1.68351101     1.21335108     0.27054109    -0.91655002
