# total energy = -4926.50740349 eV

CRYSTAL
PRIMVEC
        4.74918143     0.00000000     0.00000000
       -0.00000656     2.28664276     0.00000000
       -2.37461732    -1.14338527     5.11639702
PRIMCOORD
6 1
Ti     -0.00020289     1.71505789     1.27909899    -0.04051983    -0.03242754    60.07337302
Ti      2.37476039    -0.57180054     3.83729740     0.04051983     0.03242754   -60.07337302
O       0.00005054     0.57164972     0.83341914     0.04117109     0.03253218   -49.45228590
O       2.37450681     0.57160753     4.28297729    -0.04117109    -0.03253218    49.45228590
O      -0.00001940    -0.57167572     3.39161756    -0.00087572    -0.00001568     0.06997491
O       2.37457670     1.71493298     1.72477888     0.00087572     0.00001568    -0.06997491
