# total energy = -4989.38595621 eV

CRYSTAL
PRIMVEC
        2.99651787     0.00000000     0.00000000
        0.92972156     4.60212216     0.00000000
       -0.00000619    -0.00006147     4.71898316
PRIMCOORD
6 1
Ti      1.96311656     2.30103035     2.35949168     0.00000000     0.00000000     0.00000000
Ti      0.00000000     0.00000000     0.00000000     0.00000000     0.00000000     0.00000000
O       1.67944672     0.89687389     0.91966037    -0.95037444     0.37484615     0.31781367
O       2.24678641     3.70518680     3.79932300     0.95037444    -0.37484615    -0.31781367
O       0.28366731     1.40413155     3.27915290     0.95001654    -0.37375678     0.31661527
O       0.64604805     3.19792902     1.43983047    -0.95001654     0.37375678    -0.31661527
