# total energy = -19517.09175708 eV

CRYSTAL
PRIMVEC
        5.17600016     0.00000000     0.00000000
        0.00000000     5.50899976     0.00000000
        0.00000000     0.00000000     9.26300011
PRIMCOORD
23 1
Ti      1.86181601     3.30049999     3.39376500    -0.49637916    -0.68446443     2.86067677
Ti      3.34864999     2.21219602     5.86275602    -0.50539294     1.05810756    -2.51030264
Ti      4.32579700     2.05268898     1.48553802     1.21641532     0.24068800    -1.19439716
Ti      0.77944898     3.33901103     7.72579999     2.69988712    -0.40990496     2.74718361
Ti      1.94127002     0.22785399     1.45409002    -0.23554888     0.90968440    -3.34538286
Ti      3.37523898     5.25505400     7.87211703    -1.66799994    -1.20060483     2.82876063
Ti      0.70624102     0.60427401     5.80682400     0.55317562    -0.53155315    -2.32879195
Ti      4.51627599     4.99385100     3.34765900     0.20654554    -0.21515025     3.24256904
O       1.68056000     1.89583698     4.81211100    -0.41298566     0.25318331     0.12218170
O       3.48478100     3.51211200     4.54200099     0.42619367     0.39405667    -0.26764654
O       0.39961598     2.52790698     0.14276398    -0.84164168     0.38845784    -0.90652400
O       3.48581501     0.78053099     0.29508199    -0.21129334     0.18446824    -0.84608532
O       1.69065501     4.80708800     8.97200998     0.68562399    -0.11933163     0.99623908
O       4.24174101     0.78161602     4.81004001    -0.36755219    -0.09224556    -0.53217227
O       0.93638200     4.75632699     4.50235599     0.54621461    -0.49960538    -0.18745149
O       0.08257499     3.45484999     2.57782998     0.60557112    -1.67026251    -0.66496826
O       5.02876199     1.98501202     6.80299901    -0.70090278     0.82411780     0.92117133
O       2.53816402     1.87848102     2.38740899     0.42060512    -0.27588976    -1.37667662
O       2.63728601     3.58705101     6.98673099    -0.74495916    -0.15837204     1.56368407
O       0.11502202     0.54583300     2.01026198     0.88565409     0.58984265     0.17947849
O       5.08376398     4.79440600     7.12160202    -0.99871505     0.44443514    -0.01903748
O       2.40617700     0.77902099     6.89921200    -0.84713278     1.21139139    -0.82809684
O       2.91504400     4.55993100     2.39218100    -0.21538268    -0.64104850    -0.45441128
