# total energy = -19961.79338899 eV

CRYSTAL
PRIMVEC
        7.60600008     0.00000000     0.00000000
        0.00000000     7.60600008     0.00000000
       -1.89786986    -1.89786986     4.85670466
PRIMCOORD
24 1
Ti      3.79704098     6.75206998     1.15246502     1.18171930    -0.64861809    -0.18484670
Ti      3.82208498     2.82917198     1.17966399    -0.60816228     0.63616212     0.06082590
Ti     -0.02386600     6.64063499     1.22760502    -0.99561765    -0.43148475    -0.01840422
Ti     -0.05292699     2.79187302     1.28640502     0.28784256     0.56492428    -0.42057016
Ti      5.66294425     2.82796625     3.67905281    -0.50317253    -0.10262922     0.39518642
Ti      5.67568721    -0.94817080     3.65920983     0.21460260     0.05580684    -0.52612195
Ti      1.92989223     2.82152923     3.63280981     0.63452098     0.27608285     0.30243692
Ti      1.94509523    -0.93899476     3.51035079    -0.37190173    -0.08499350     1.13490284
O       3.93632101     4.76377600     0.85166803    -0.53505911     0.56647414    -0.99614678
O       3.88899198     0.98478198     0.76001802    -0.49087905    -0.44320076    -0.29616034
O      -0.18639401     4.72087698     0.82606701     0.52702569     0.21639723     0.27234395
O      -0.07337498     0.92694301     0.75750898     0.24305393     0.20762103     0.88251478
O       5.54217621     4.71832121     4.10003580     0.52299112     0.15433361    -0.33984726
O       5.76683122     0.93213821     4.17462583     0.14769965    -0.05761999    -0.51843898
O       2.12718824     4.84744723     3.97477680    -0.83120325    -1.38853480     0.75422851
O       1.88410321     0.96012724     4.01047483    -0.26186721     0.06335355     0.37889513
O       3.81874322     2.61778022     3.26458680    -0.26996516     0.52612118    -0.16794041
O       3.78609521    -0.91684880     3.18447979     0.68844938     0.39377899    -0.23466210
O       0.02418123     2.88382625     3.23024383    -0.37422780     0.03121989     0.19764746
O       0.00262922    -1.00557076     3.18509083    -0.16194434    -0.18933971     0.41085472
O       5.69511701     6.84067902     1.71486201    -0.09273458    -0.40802265    -0.47104376
O       5.61031598     2.82702098     1.70424200     2.00354702    -0.12009782    -0.11413954
O       1.90198300     6.69087100     1.59173802     0.03120549     0.04999409    -0.74774135
O       1.95901100     2.83152301     1.63521401    -0.98592253     0.13227148     0.24622718
