# total energy = -19077.20985418 eV

CRYSTAL
PRIMVEC
        5.17575250     0.00001323     0.00000000
        0.00001429     5.50856584     0.00000000
        0.00000000     0.00000000     9.26345890
PRIMCOORD
22 1
Ti      1.90985944     3.42874700     3.29625301     0.03179170    -0.03210743     0.04106670
Ti      3.40614229     2.26347446     5.92137524     0.03247947    -0.01299462     0.02134196
Ti      4.47307775     2.24495816     1.12785839    -0.04645882     0.02149854     0.04679255
Ti      0.74772190     3.28632969     8.09077401    -0.02135199    -0.01143473     0.02029372
Ti      1.81146218     0.63100272     1.23604022     0.00085489    -0.01113622     0.04123100
Ti      3.20218227     4.98232599     8.14396938    -0.05109015     0.01301801    -0.02463992
Ti      0.79151890     0.56635920     5.79292465     0.00127450    -0.02527010    -0.04586515
Ti      4.46645522     4.94067664     3.50218902     0.02954559     0.01167256     0.00676817
O       3.45654006     3.48713591     4.52460720     0.02129826     0.01968952     0.00396850
O       0.94930330     1.94527638     0.12887258     0.00722583     0.02983124    -0.00680314
O       4.14899558     3.61920375     9.13830570     0.03080877    -0.04370106     0.00176892
O       3.55941272     0.83343762     0.07339830     0.01198237    -0.00774699     0.00357615
O       1.56354522     4.73016283     9.12536627    -0.01134705     0.01429920    -0.06803373
O       4.27740163     0.81303377     4.72758513    -0.01174583     0.06852250    -0.00767732
O       0.93335290     4.59695575     4.59463579     0.02433344    -0.01523508    -0.04864066
O       0.17294565     3.29795676     2.50224608    -0.03128031     0.06118688     0.02593524
O       5.09750138     2.04336880     6.79224884    -0.01836668    -0.03405325     0.02256915
O       2.73739402     2.09525300     2.16655482    -0.00571402    -0.03839481    -0.00511907
O       2.35150563     3.39121949     7.06359486     0.00463030    -0.02378760    -0.01579892
O       0.19874259     0.52649315     2.18833151    -0.01258144    -0.01397009    -0.00491287
O       2.44677518     0.65376154     6.69833225     0.03475901     0.01923674    -0.03441423
O       2.78148426     4.87391395     2.46495290    -0.02104783     0.01087731     0.02659293
