# total energy = -39034.72221463 eV

CRYSTAL
PRIMVEC
        5.93200024     0.00000000     0.00000000
        0.00000000     9.29399984     0.00000000
        0.00000000     0.00000000     9.29399984
PRIMCOORD
46 1
Ti      4.39074298     6.98534100     6.96681397    -1.62499514    -0.00108295    -0.03646520
Ti      4.44676401     6.78782300     2.42948202    -1.49944144     0.80585473     0.55473731
Ti      4.44742702     2.25638100     7.00227499    -1.29356799    -0.46250872     0.44163161
Ti      4.46118298     2.57186001     2.09947999     0.46281211    -0.34346686     0.25028799
Ti      1.26598799     6.93508599     7.01607403     2.94087388    -0.95952757     0.00998154
Ti      1.40489501     7.00254402     2.25944700     1.89323149    -0.09096721     0.12222026
Ti      1.37876497     2.50925200     6.98683698     1.40632299    -1.06022666     0.23335907
Ti      1.52081202     2.07098200     2.53341301    -1.30718070     1.80600729    -0.57758620
Ti      3.00720101     4.61976401     4.69684498    -0.71157235     0.11238759    -0.01589431
Ti      2.95823201     4.85922497     9.26053202     0.56254087     0.22289904    -1.13712119
Ti      2.87864899     9.28405998     4.72767802     1.15311474    -0.44147503     0.79392096
Ti      3.02808500     0.01657298     0.04281700     0.19509409     0.28173130    -0.42494103
Ti      0.01903699     4.66096501     4.57483898     0.91386142    -0.60202686    -0.00772283
Ti      0.00483700     4.66601400     0.00990498    -0.14020308    -1.35853362     0.16361272
Ti      5.91456602     9.14456198     4.75140400    -0.89989055     0.48464953    -0.01016512
Ti      0.08706098     9.18471802     0.05602198    -0.47975903     0.83832495    -0.50293265
O       4.59893798     5.55959800     5.39415200    -0.95581618     1.05812607     1.61342851
O       4.57514702     5.68257900     0.88562798    -1.14914881    -1.39152114    -0.21794144
O       4.44367298     0.69479301     5.74801002    -0.24143002     1.28561916    -1.10552746
O       4.63392099     1.10599998     0.80310898    -0.77037890    -0.94461568     0.17959111
O       1.52198701     5.63132400     5.49294198    -0.60266012    -0.08563551     0.44046536
O       1.46672402     5.71337299     0.69951401     0.28851285     0.15620306     1.61089083
O       1.40121199     0.94873099     5.55450302     0.85107274    -0.21901925    -1.08386051
O       1.41723600     0.85793401     1.04738698     0.48478708    -0.37032332    -0.32131268
O       4.43379001     8.34189302     8.32112498     0.18202363     0.36941161     0.79257910
O       4.48614797     8.25835699     3.97380502    -0.01876675    -0.01596733    -1.99126949
O       4.48787002     3.76879402     8.39608400    -0.59308430    -0.40082922     0.73610891
O       4.40323802     3.94890299     3.55287399     0.49293568    -1.94389664    -0.61857525
O       1.61509897     8.57806901     8.25300399    -1.01063289    -1.39579843     0.71263730
O       1.47312299     8.41178500     3.63134097    -0.37958521     0.65255522     0.61000705
O       1.60622398     3.99277697     8.29503702    -0.57896817    -2.34225579    -0.10717879
O       1.57699001     3.69926701     3.81753501    -0.42227505    -0.99472496    -0.95573442
O       2.87808103     6.05306499     7.85558500     1.25751031     0.74639847    -0.34436597
O       2.95257003     6.05380002     3.25665099    -0.41842251     0.47004128    -0.93452358
O       2.93785001     1.43412501     7.91858397     0.48500408     0.92515731    -0.04622228
O       3.10294199     1.48178298     3.11239097     1.28670674    -0.61852537     0.75260640
O       5.78708701     5.90155599     7.83814099     0.75693459     1.67061629    -0.95048654
O       0.06443098     5.82263502     3.07574201     0.46019755     1.83062253    -0.44577006
O       0.02301201     1.38244699     7.73770198     0.63114641     0.67971148     0.85429254
O       2.97217901     7.76110500     5.96906302    -0.65376750     0.72804104     0.07122293
O       2.95990500     7.79762501     1.38132900     0.27335773     0.65322911     0.16220659
O       3.04880202     3.16421198     5.91055899    -0.00733973    -0.12112240     1.10994128
O       0.05423998     7.92930600     6.13842498    -0.80251538    -0.43300273    -0.02875266
O       5.84437198     7.79995201     1.42357301     0.40991473     1.13525508    -0.31731410
O       0.02724802     3.33290702     6.09653902    -0.60252308    -0.36233130    -0.32961323
O       0.20704801     3.23850100     1.43035198    -0.22403187     0.04654238     0.29554816
