# total energy = -19921.58994556 eV

CRYSTAL
PRIMVEC
        6.32230761     0.00000000     0.00000000
        0.67124123     6.69528336     0.00000000
        0.00000000     0.00000000    11.32974411
PRIMCOORD
24 1
Ti      2.68930942     3.96761876     4.20325436    -0.08899954    -1.34436221     0.70622419
Ti      4.30423961     2.72766466     7.12649014     0.08899954     1.34436221    -0.70622419
Ti      5.72604662     2.72766693     1.46157263     0.14168609     0.37112731    -0.50189958
Ti      1.26750243     3.96761680     9.86817205    -0.14168609    -0.37112731     0.50189958
Ti      2.35368894     0.61997713     1.46161808    -0.08899954    -1.34436221    -0.70622419
Ti      4.63986011     6.07530653     9.86812660     0.08899954     1.34436221     0.70622419
Ti      0.93188186     0.61997467     7.12644475    -0.14168609    -0.37112731    -0.50189958
Ti      6.06166712     6.07530894     4.20329981     0.14168609     0.37112731     0.50189958
O       2.23740580     2.35752310     5.78148184     1.60850305     1.64678293    -0.27625202
O       4.75614324     4.33776037     5.54826265    -1.60850305    -1.64678293     0.27625202
O       1.39649869     2.35755018     0.11664607    -1.17530851     0.88295315     0.35570994
O       5.59705042     4.33773336    11.21309816     1.17530851    -0.88295315    -0.35570994
O       4.42052274     0.99011849     0.11660934    -1.60850305    -1.64678293    -0.27625202
O       2.57302630     5.70516498    11.21313490     1.60850305     1.64678293     0.27625202
O       5.26142992     0.99009148     5.78151864     1.17530851    -0.88295315     0.35570994
O       1.73211905     5.70519200     5.54822592    -1.17530851     0.88295315    -0.35570994
O       0.63799100     4.07245102     3.06044661     0.46991427     0.43572141     0.86244062
O       6.35555798     2.62283246     8.26929788    -0.46991427    -0.43572141    -0.86244062
O       3.65381854     2.62277010     2.60446166     0.55516951     0.91739026     0.15641620
O       3.33973050     4.07251331     8.72528270    -0.55516951    -0.91739026    -0.15641620
O       0.30237051     0.72480915     2.60442544     0.46991427     0.43572141    -0.86244062
O       6.69117847     5.97047427     8.72531886    -0.46991427    -0.43572141     0.86244062
O       3.00411001     0.72487150     8.26933404    -0.55516951    -0.91739026     0.15641620
O       3.98943904     5.97041198     3.06041046     0.55516951     0.91739026    -0.15641620
