# total energy = -39040.37097488 eV

CRYSTAL
PRIMVEC
        7.60629642    -0.00000847    -0.00005503
       -0.00000847     7.60629642    -0.00005503
       -3.80314186    -3.80314186     9.70738094
PRIMCOORD
46 1
Ti      1.91693083     4.75393516     6.21478175     0.03662024     0.00033116    -0.04776777
Ti      3.80569157     6.62981313     1.18728563    -0.02581851    -0.04425513    -0.03173642
Ti      1.82110057     0.95086807     5.95763237    -0.00601536    -0.00031676    -0.01162345
Ti      3.80578632     2.87829792     1.18722180    -0.02600646     0.04406667    -0.03140372
Ti     -1.90910748     4.75404207     6.07453348    -0.04661412     0.00006351     0.09373397
Ti     -0.00558733     6.67440792     1.24121052     0.02608308    -0.01649569     0.01095856
Ti     -1.81984650     0.95083125     6.02002300    -0.00581969     0.00024965     0.01555209
Ti     -0.00562863     2.83351926     1.24119517     0.02639007     0.01662090     0.01115602
Ti      3.80112182     0.95079378     8.63007164    -0.04476704    -0.00001954     0.02901620
Ti      5.68800457     2.86918342     3.63784742    -0.01404517     0.03302198    -0.05462799
Ti      3.83596199    -2.85240017     8.53222679    -0.03634796     0.00025043     0.09062499
Ti      5.68796241    -0.96793270     3.63780898    -0.01381480    -0.03286411    -0.05403638
Ti      0.01907682     0.95059829     8.41229291     0.07443963     0.00042475    -0.01348081
Ti      1.91358245     2.79144661     3.59348888     0.00595596    -0.01538394    -0.00200315
Ti     -0.02761057    -2.85262334     8.52514738     0.03234655     0.00038721    -0.00700446
Ti      1.91353137    -0.88979508     3.59362275     0.00591662     0.01416730    -0.00234433
O       2.00150486     2.91482674     5.60400516    -0.01108146    -0.01346564    -0.02191378
O       3.83371070     4.75396826     0.73552311     0.02482221    -0.00009539    -0.04077077
O       2.00151280    -1.01326377     5.60396959    -0.01119356     0.01362274    -0.02146049
O       3.77715805     0.95076851     0.79356355     0.01640082    -0.00000129    -0.01526722
O      -2.03192787     2.82527078     5.66341972    -0.00695972     0.00295626     0.04169560
O      -0.03159691     4.75394906     0.83796345    -0.02327029    -0.00004422     0.00200058
O      -2.03191800    -0.92370487     5.66344944    -0.00693941    -0.00295086     0.04173493
O       0.02354076     0.95078707     0.86902546    -0.01415136     0.00005348     0.00611511
O       3.79802051     2.86903129     8.96511284     0.00474883    -0.02453090    -0.03368249
O       5.72858609     4.75388397     4.10835454     0.03034289     0.00023526     0.01068885
O       3.79799990    -0.96742735     8.96514616     0.00476528     0.02443089    -0.03367761
O       5.65984548     0.95074679     4.01204070    -0.02441803     0.00011699     0.04281248
O       0.00749032     2.83247966     8.87613218     0.01021705    -0.02859171    -0.03931861
O       0.00753864    -0.93089104     8.87612609     0.01024714     0.02863207    -0.03928621
O       1.95665753     0.95083797     3.98761008     0.01462958    -0.00073225     0.11316175
O       2.01618009     0.95086883     7.97043437     0.01709707     0.00008922    -0.10372065
O       3.78275075     3.01048390     3.21111510    -0.01823170     0.01364922     0.06224180
O       1.89737311    -2.85235080     8.13067288     0.02092570    -0.00008793    -0.02402517
O       3.78271277    -1.10884771     3.21118643    -0.01829443    -0.01370141     0.06200269
O      -1.99912432     0.95088253     7.99590212    -0.02837445     0.00002031    -0.00874870
O       0.01877124     2.93963501     3.27225422     0.01901023    -0.01871841     0.02563468
O      -1.89884364    -2.85230907     8.11130352    -0.02508472     0.00002982    -0.02016106
O       0.01878075    -1.03808351     3.27230720     0.01914367     0.01868627     0.02554109
O       3.81641341     4.75395482     6.54965201    -0.03736457     0.00002314    -0.01972628
O       5.69858751     6.67255463     1.66197541    -0.00273154     0.02135251    -0.02013792
O       5.69859771     2.83518707     1.66195115    -0.00271072    -0.02119438    -0.01994508
O      -0.01878068     4.75389224     6.48890404     0.05207926     0.00007893    -0.03952044
O       1.90379590     6.61259792     1.61245950    -0.00409885    -0.04560213     0.03900005
O       0.01069801     0.95074941     6.41128961     0.00612977     0.00000206    -0.00568754
O       1.90382298     2.89536470     1.61242289    -0.00415773     0.04548823     0.03940783
