# total energy = -4984.26461595 eV

CRYSTAL
PRIMVEC
        2.91967233     0.00000000     0.00000000
        1.75949577     4.22278955     0.00000000
       -0.00001122    -0.00006078     4.67276173
PRIMCOORD
6 1
Ti      2.33957836     2.11136424     2.33638081     0.00000000     0.00000000     0.00000000
Ti      0.00000000     0.00000000     0.00000000     0.00000000     0.00000000     0.00000000
O       1.80273372     0.82294754     0.91065242    -5.12288972     2.36465422     2.85190237
O       2.87642301     3.39978095     3.76210916     5.12288972    -2.36465422    -2.85190237
O       0.53683984     1.28839217     3.24703425     5.12226623    -2.36436292     2.85137118
O       1.22264469     2.93433650     1.42572737    -5.12226623     2.36436292    -2.85137118
