# total energy = -19883.72877952 eV

CRYSTAL
PRIMVEC
        6.55767861     0.00000000     0.00000000
        0.00002148     2.99115125     0.00000000
        0.00000000     0.00000000     9.98027431
PRIMCOORD
24 1
Ti      2.37685571     1.77255347     3.70261059    -1.65550257     1.20930365    -3.13751707
Ti      4.18084409     1.21859782     6.27766387     1.65550257    -1.20930365     3.13751707
Ti      5.65558278     1.21859884     1.28748672    -1.65282862    -1.20923603     3.14163006
Ti      0.90211702     1.77255255     8.69278783     1.65282862     1.20923603    -3.14163006
Ti      2.37684512     0.27697790     1.28752676    -1.65562701     1.20224340     3.13801252
Ti      4.18085468     2.71417345     8.69274779     1.65562701    -1.20224340    -3.13801252
Ti      0.90210643     0.27697678     6.27762383     1.65281603     1.20280930     3.14111378
Ti      5.65559337     2.71417456     3.70265063    -1.65281603    -1.20280930    -3.14111378
O       2.07555417     1.05323519     5.09285763     8.96787077    -2.78989659     6.60374799
O       4.48214563     1.93791606     4.88741683    -8.96787077     2.78989659    -6.60374799
O       1.20333845     1.05324726     0.10275251    -8.96736092    -2.79033265     6.60327825
O       5.35436140     1.93790404     9.87752166     8.96736092     2.79033265    -6.60327825
O       4.48213509     0.44234043     0.10272013    -8.96868838     2.78953895     6.60239534
O       2.07556472     2.54881087     9.87755403     8.96868838    -2.78953895    -6.60239534
O       5.35435086     0.44232837     5.09289000     8.96860919     2.79080445     6.60435169
O       1.20334890     2.54882293     4.88738446    -8.96860919    -2.79080445    -6.60435169
O       0.23826859     1.81938774     2.69592110     4.94989787    -1.91732787     1.26276668
O       6.31943121     1.17176351     7.28435336    -4.94989787     1.91732787    -1.26276668
O       3.51711624     1.17173565     2.29424785     4.95114897     1.91788400    -1.26667784
O       3.04058356     1.81941565     7.68602646    -4.95114897    -1.91788400     1.26667784
O       0.23825805     0.32381211     2.29421601     4.94913271    -1.91761995    -1.26648012
O       6.31944175     2.66733918     7.68605830    -4.94913271     1.91761995     1.26648012
O       3.04057301     0.32383998     7.28438515    -4.95130298    -1.91812543    -1.26181665
O       3.51712679     2.66731132     2.69588925     4.95130298     1.91812543     1.26181665
