# total energy = -4970.55698646 eV

CRYSTAL
PRIMVEC
        4.61131721     0.00000000     0.00000000
       -0.00000698     2.76679032     0.00000000
       -2.30568458    -1.38344563     5.02192333
PRIMCOORD
6 1
Ti     -0.00019766     2.07519109     1.25548050    -0.01315145    -0.01857391    23.04908064
Ti      2.30582316    -0.69184650     3.76644222     0.01315145     0.01857391   -23.04908064
O       0.00004884     0.69168870     0.81803017     0.01102464     0.01329775   -14.00792698
O       2.30557656     0.69165584     4.20389260    -0.01102464    -0.01329775    14.00792698
O      -0.00001900    -0.69169790     3.32899184    -0.00194735    -0.00033270    -1.02215684
O       2.30564434     2.07504239     1.69293088     0.00194735     0.00033270     1.02215684
