# total energy = -19958.28418898 eV

CRYSTAL
PRIMVEC
        7.60600008     0.00000000     0.00000000
        0.00000000     7.60600008     0.00000000
       -1.89786986    -1.89786986     4.85670466
PRIMCOORD
24 1
Ti      3.55205800     6.76369299     1.34258603     3.42760189     0.06412822     0.75606273
Ti      3.86270902     2.97030302     1.24983898    -0.83802105    -0.71882620     1.15517857
Ti      0.06240799     6.67064903     1.18533598    -2.97299777    -0.29092583    -1.19607044
Ti     -0.04329099     2.76593900     1.15088897     0.73095899    -0.86389690    -2.00290733
Ti      5.75989725     2.79840222     3.65163482    -2.61216490     0.45250867     0.53660280
Ti      5.87405322    -1.09568076     3.50319382    -3.05772285    -0.28370206    -0.63485754
Ti      1.73257421     2.93510924     3.54669981     2.06799020    -0.38362956     1.95895276
Ti      1.84746324    -0.86817280     3.73585782     0.69703095    -0.30043403     1.45896635
O       3.69832598     4.69303300     0.74344498    -0.34174139     1.62744231     1.09078064
O       3.61493002     1.01307899     0.96294802     0.46953812     0.26932804    -1.12890728
O       0.37091399     4.82305698     0.67208897    -1.58969670    -2.25278600     0.85618127
O       0.05303801     0.76929698     0.53591802    -0.25021188     1.74421492     2.59966188
O      -1.41724579     4.70311223     3.87037182    -1.63212892    -1.47540239     0.36790597
O       5.76821221     0.74152825     4.00438083    -0.45902230     3.45114060     1.60135152
O       1.78098022     4.82636524     4.39205481     0.08368558    -0.26442880    -4.21146494
O       1.91274821     1.04952221     4.16648883    -0.08286617    -1.93044976    -1.67066283
O       3.73608023     2.99465422     3.26911782     0.33171203     0.17467901    -0.30988567
O       3.93880920    -1.06645679     3.21316183    -3.21720972    -0.16637075     0.23993801
O      -0.13948477     2.70369024     3.25132784     3.38348791    -0.28276746    -1.61299734
O       0.00648120    -0.98253578     3.21368481     4.19991760     0.62884990    -0.45236803
O       5.76649402     6.79487799     1.60446098     0.74382531    -0.70626379    -0.89441770
O       5.68984000     2.65377602     1.56615601     0.86043645     0.61520068    -0.01098813
O       1.80806499     6.80341198     1.70183398     0.85582749    -0.06628564     1.56047045
O       1.81308699     2.61212400     1.68308899    -0.79822884     0.95867628    -0.05652547
