# total energy = -19074.53143687 eV

CRYSTAL
PRIMVEC
        5.17600016     0.00000000     0.00000000
        0.00000000     5.50899976     0.00000000
        0.00000000     0.00000000     9.26300011
PRIMCOORD
22 1
Ti      1.89435899     3.27396498     3.29446901    -0.46987699     0.98656556     0.25956813
Ti      3.38873802     2.21892303     5.97807999    -0.74022627     0.54176326    -1.76964365
Ti      4.50864499     2.21052800     1.29817800    -0.42325516     0.04459323    -2.35596312
Ti      0.68281201     3.31787902     8.06163101     0.97337322    -0.09178585     1.31310735
Ti      1.87945201     0.57866702     1.30284000     0.23769035    -0.88937037    -1.97329078
Ti      3.26711499     4.97004803     8.04154302     0.34654344     0.71222181     0.74172369
Ti      0.68778199     0.50764900     5.90238701    -0.33886047    -0.21660704    -1.57217309
Ti      4.47238100     4.90888498     3.43560000    -0.48850078     0.63375685     1.10281572
O       3.28815900     3.51949402     4.44421798     1.47437034    -0.29169048     1.82985737
O       0.86452201     1.94113799     0.09279001    -0.15027461     0.17976286    -0.30556827
O       4.31828200     3.80139399     9.10168598     0.49944932    -0.51738251    -0.11588172
O       3.41430401     0.83621600     0.27543798     0.91252239     0.33025781    -2.14691564
O       1.81248098     4.69859200     8.99098400    -3.02126228     0.03186292     1.51459270
O       4.31477800     0.96580500     4.67342100     0.73422455    -1.54079996    -0.40441205
O       0.96772199     4.60651299     4.40274202    -1.47384481     1.53740173     1.75816959
O       0.10500401     3.40307502     2.51795199    -0.24059878    -0.44283515    -0.51138978
O       5.04811500     2.27186499     6.61883702     2.08903803    -0.41116326     1.04610436
O       2.71497600     2.03768199     2.13546500    -0.05510879     0.11802808     1.17864478
O       2.44940798     3.29374298     7.24923402     0.27439517    -0.04467525    -1.41386661
O       0.06633602     0.66502901     1.97861300     0.24745154    -1.50578152     2.13374028
O       2.51599901     0.66319800     6.60102200    -1.05865623    -0.62200999     0.30596293
O       2.66615099     4.65591301     2.38361701     0.67140733     1.45788725    -0.61518217
