# total energy = -19517.14915204 eV

CRYSTAL
PRIMVEC
        5.93400000     0.00000000     0.00000000
        0.00000000     9.29699974     0.00000000
        0.00000000     0.00000000     4.64899994
PRIMCOORD
23 1
Ti      4.48542501     7.07772498     2.24956302     0.60446323     0.22036856     0.39396823
Ti      4.53094299     2.23954300     2.37884103    -0.29764361    -0.17240333    -0.31633811
Ti      1.45649302     7.08463598     2.27191198    -1.09409170     0.53958759     0.07419101
Ti      1.48022302     2.23612600     2.29550598     0.26198780     0.57944305     0.49810669
Ti      3.03821699     4.32864699     0.12933902     0.94254131    -0.07876243    -0.11013273
Ti      2.89068899     9.26859600     4.56385998     1.69893006    -0.25553535    -1.07366223
Ti      0.13041399     4.67402098     0.03552801    -1.42603821    -0.36954634    -0.36775453
Ti      0.02108999     0.18994399     0.07136701    -2.62593702    -1.25662482    -0.20133751
O       4.37042802     5.49921501     0.84449699    -0.49706230     0.53856892     0.33027838
O       4.38033200     0.96215600     0.89754103     0.30045794    -0.06277968     0.43468166
O       1.42595700     5.54084200     0.96355203     1.21458676     0.32562545     0.12457051
O       1.46482999     1.00617900     0.80897501     0.93127165     0.61231436     1.52375457
O       4.51855601     8.49950100     3.82734802    -1.44729353    -1.09622135    -1.92554281
O       4.42016597     3.62736400     3.67660299    -0.71949803     1.47508177     1.32611688
O       1.26868801     8.53415200     3.62508499     1.77364841    -1.26581369    -0.20013552
O       1.43528899     3.55064801     3.84413098     0.44337791     1.71489791    -0.09336322
O       2.92514102     1.45838699     3.26467602    -0.05476940    -0.53530953    -0.34188203
O       5.75819197     6.12649802     3.21255999     0.82519509    -0.37526062    -0.02089433
O       0.03329202     1.46343201     3.30909399     0.13598158     0.18499891    -1.15722491
O       2.86247400     7.98463799     1.26639800    -0.17444684    -1.37703580     1.47540573
O       3.07157903     3.03820302     1.39642002    -1.29016539     1.50112217    -0.39037845
O       5.90360501     7.95488998     1.34421700     0.04930298    -0.26251513     0.35927092
O       5.89496699     3.33074099     1.50838303     0.44520108    -0.58420062    -0.34169845
