# total energy = -19945.76078747 eV

CRYSTAL
PRIMVEC
        4.77506768     0.00000000     0.00000000
        0.75807916     5.02525805     0.00000000
        0.00000000     0.00000000     8.57059183
PRIMCOORD
24 1
Ti      2.17996936     2.97796322     3.17962847     1.73674715    -0.10922487    -0.00588603
Ti      3.35317742     2.04729469     5.39096355    -1.73674715     0.10922487     0.00588603
Ti      4.42702982     2.04729639     1.10563327    -2.57538886    -0.69595546     1.87806377
Ti      1.10611697     2.97796172     7.46495885     2.57538886     0.69595546    -1.87806377
Ti      1.80092988     0.46533428     1.10566764     1.73652089    -0.10981957     0.00136089
Ti      3.73221691     4.55992378     7.46492448    -1.73652089     0.10981957    -0.00136089
Ti      0.72707747     0.46533244     5.39092918     2.57529219     0.69533917     1.88371454
Ti      4.80606932     4.55992562     3.17966284    -2.57529219    -0.69533917    -1.88371454
O       1.77827161     1.76947873     4.37350745    -1.87269299    -1.29762956    -0.57503283
O       3.75487517     3.25577918     4.19708452     1.87269299     1.29762956     0.57503283
O       1.14315830     1.76949904     0.08823904     1.77183526    -1.52629765    -0.23795286
O       4.38998853     3.25575892     8.48235274    -1.77183526     1.52629765     0.23795286
O       3.37583569     0.74315010     0.08821124     1.87245439     1.29718990    -0.57507654
O       2.15731109     4.28210781     8.48238054    -1.87245439    -1.29718990     0.57507654
O       4.01094905     0.74312983     4.37353529    -1.77163163     1.52572352    -0.23799837
O       1.52219769     4.28212813     4.19705673     1.77163163    -1.52572352     0.23799837
O       0.63459596     3.05664681     2.31513071    -0.96727945    -0.97282198    -1.75043468
O       4.89855082     1.96861106     6.25546131     0.96727945     0.97282198     1.75043468
O       2.85799790     1.96856432     1.97019256     0.31690349    -1.77130202    -1.22970382
O       2.67514888     3.05669355     6.60039931    -0.31690349     1.77130202     1.22970382
O       0.25555647     0.54401773     1.97016515    -0.96741752    -0.97275436     1.75023233
O       5.27759030     4.48124014     6.60042667     0.96741752     0.97275436    -1.75023233
O       2.29610939     0.54406446     6.25548862    -0.31716883     1.77138532    -1.23132079
O       3.23703738     4.48119340     2.31510335     0.31716883    -1.77138532     1.23132079
