# total energy = -19943.65042697 eV

CRYSTAL
PRIMVEC
        5.11991008     0.00000000     0.00000000
        2.09584423     5.02995841     0.00000000
        0.00000000     0.00000000     9.35995346
PRIMCOORD
24 1
Ti      3.09771654     2.98074879     3.47247597     3.03106050    -3.58202060     1.22296290
Ti      4.11803785     2.04920976     5.88747759    -3.03106050     3.58202060    -1.22296290
Ti      5.26944137     2.04921147     1.20746339    -6.30618306     0.82544423     1.75643949
Ti      1.94631306     2.98074728     8.15249022     6.30618306    -0.82544423    -1.75643949
Ti      2.04979453     0.46576956     1.20750091     3.03106050    -3.58202060    -1.22296290
Ti      5.16595989     4.56418914     8.15245270    -3.03106050     3.58202060     1.22296290
Ti      0.89839092     0.46576771     5.88744002     6.30618306    -0.82544423     1.75643949
Ti      6.31736349     4.56419099     3.47251350    -6.30618306     0.82544423    -1.75643949
O       2.35846623     1.77113392     4.77631262    -0.23662463     0.83468324    -1.16435150
O       4.85728810     3.25882464     4.58364094     0.23662463    -0.83468324     1.16435150
O       1.67749197     1.77115424     0.09636597     1.28290871    -0.63786908    -0.39836661
O       5.53826248     3.25880440     9.26358728    -1.28290871     0.63786908     0.39836661
O       3.80936607     0.74384532     0.09633558     0.23662463    -0.83468324    -1.16435150
O       3.40638832     4.28611323     9.26361767    -0.23662463     0.83468324     1.16435150
O       4.49034039     0.74382504     4.77634296    -1.28290871     0.63786908    -0.39836661
O       2.72541391     4.28613359     4.58361055     1.28290871    -0.63786908     0.39836661
O       1.46082946     3.05950599     2.52835696     0.18277722    -1.08248137    -1.03209081
O       5.75492487     1.97045257     6.83159661    -0.18277722     1.08248137     1.03209081
O       3.56699682     1.97040577     2.15164960     2.00063730    -1.29464554    -2.21525251
O       3.64875751     3.05955279     7.20830381    -2.00063730     1.29464554     2.21525251
O       0.41290742     0.54452661     2.15161967     0.18277722    -1.08248137     1.03209081
O       6.80284696     4.48543194     7.20833369    -0.18277722     1.08248137    -1.03209081
O       2.60083548     0.54457347     6.83162643    -2.00063730     1.29464554    -2.21525251
O       4.61491886     4.48538509     2.52832708     2.00063730    -1.29464554     2.21525251
