# total energy = -19960.49970942 eV

CRYSTAL
PRIMVEC
        5.07857497     0.00000000     0.00000000
        0.53919378     5.37817843     0.00000000
        0.00000000     0.00000000     9.10094199
PRIMCOORD
24 1
Ti      2.16026495     3.18710359     3.37638465     0.64923259    -0.40435497     0.27869380
Ti      3.45750395     2.19107489     5.72455765    -0.64923259     0.40435497    -0.27869380
Ti      4.59961122     2.19107671     1.17405015    -0.87367532    -0.49318919     0.62492562
Ti      1.01815769     3.18710202     7.92689230     0.87367532     0.49318919    -0.62492562
Ti      1.89066817     0.49801442     1.17408666     0.65008593    -0.41378013    -0.28016936
Ti      3.72710074     4.88016427     7.92685580    -0.65008593     0.41378013     0.28016936
Ti      0.74856084     0.49801244     5.72452119     0.87451016     0.48539232     0.62770627
Ti      4.86920802     4.88016620     3.37642116    -0.87451016    -0.48539232    -0.62770627
O       1.79726040     1.89374807     4.64414115    -0.22783299    -0.00774082    -0.31480856
O       3.82050850     3.48443046     4.45680115     0.22783299     0.00774082     0.31480856
O       1.12177764     1.89376982     0.09369930     0.44712015    -0.53515347     0.18035524
O       4.49599132     3.48440876     9.00724279    -0.44712015     0.53515347    -0.18035524
O       3.55091171     0.79534109     0.09366980     0.22819680     0.00753154    -0.31440670
O       2.06685719     4.58283745     9.00727230    -0.22819680    -0.00753154     0.31440670
O       4.22639453     0.79531938     4.64417071    -0.44725513     0.53550622     0.18063832
O       1.39137432     4.58285915     4.45677164     0.44725513    -0.53550622    -0.18063832
O       0.51248458     3.27131312     2.45839154    -0.32434581    -0.07189296    -0.34271429
O       5.10528428     2.10686541     6.64255076     0.32434581     0.07189296     0.34271429
O       2.93503456     2.10681533     2.09210855     0.27452090    -0.29106621    -0.31098970
O       2.68273434     3.27136315     7.00883365    -0.27452090     0.29106621     0.31098970
O       0.24288778     0.58222374     2.09207945    -0.32418615    -0.07072979     0.34148479
O       5.37488106     4.79595474     7.00886269     0.32418615     0.07072979    -0.34148479
O       2.41313755     0.58227383     6.64257980    -0.27412366     0.29065586    -0.30972549
O       3.20463136     4.79590470     2.45836250     0.27412366    -0.29065586     0.30972549
