# total energy = -19909.06194615 eV

CRYSTAL
PRIMVEC
        6.57143098     0.00000000     0.00000000
        2.69002687     6.45597755     0.00000000
        0.00000000     0.00000000    12.01354851
PRIMCOORD
24 1
Ti      3.97593515     3.82580644     4.45694081    -0.21145634    -2.12673042     0.52081211
Ti      5.28552280     2.63017129     7.55660783     0.21145634     2.12673042    -0.52081211
Ti      6.76335516     2.63017349     1.54978548    -0.17196958    -1.13528336     0.18246612
Ti      2.49810284     3.82580450    10.46376323     0.17196958     1.13528336    -0.18246612
Ti      2.63092184     0.59781764     1.54983364    -0.21145634    -2.12673042    -0.52081211
Ti      6.63053614     5.85816028    10.46371507     0.21145634     2.12673042     0.52081211
Ti      1.15308938     0.59781526     7.55655961     0.17196958     1.13528336     0.18246612
Ti      8.10836861     5.85816266     4.45698897    -0.17196958    -1.13528336    -0.18246612
O       3.02710357     2.27325951     6.13042187     1.81802566     2.06380008    -0.79121821
O       6.23435431     4.18271823     5.88312678    -1.81802566    -2.06380008     0.79121821
O       2.15306960     2.27328560     0.12368622    -0.23871288    -0.74139047     1.56417927
O       7.10838844     4.18269225    11.88986203     0.23871288     0.74139047    -1.56417927
O       4.88934098     0.95472930     0.12364722    -1.81802566    -2.06380008    -0.79121821
O       4.37211696     5.50124843    11.88990103     1.81802566     2.06380008     0.79121821
O       5.76337503     0.95470327     6.13046080     0.23871288     0.74139047     1.56417927
O       3.49808280     5.50127455     5.88308777    -0.23871288    -0.74139047    -1.56417927
O       1.87498215     3.92689170     3.24515919     0.62312997     2.68755328     2.56008231
O       7.38647574     2.52908604     8.76838946    -0.62312997    -2.68755328    -2.56008231
O       4.57825881     2.52902596     2.76165335     0.61757175     2.08724546     1.56777753
O       4.68319907     3.92695178     9.25189510    -0.61757175    -2.08724546    -1.56777753
O       0.52996880     0.69890271     2.76161494     0.62312997     2.68755328    -2.56008231
O       8.73148915     5.75707502     9.25193344    -0.62312997    -2.68755328     2.56008231
O       3.33818574     0.69896285     8.76842774    -0.61757175    -2.08724546     1.56777753
O       5.92327214     5.75701488     3.24512084     0.61757175     2.08724546    -1.56777753
