# total energy = -4989.73266328 eV

CRYSTAL
PRIMVEC
        3.10031924     0.00000000     0.00000000
        0.00000000     4.85773545     0.00000000
        0.00000000    -0.00006304     4.85773545
PRIMCOORD
6 1
Ti      1.55015957     2.42883615     2.42886767     0.00000000     0.00000000     0.00000000
Ti      0.00000000     0.00000000     0.00000000     0.00000000     0.00000000     0.00000000
O       1.55015957     0.94668879     0.94670108    -0.00000000    -0.41002297    -0.41002297
O       1.55015957     3.91098351     3.91103426     0.00000000     0.41002297     0.41002297
O       0.00000000     1.48212180     3.37556974     0.00000000     0.40972601    -0.40972601
O       0.00000000     3.37555050     1.48216561     0.00000000    -0.40972601     0.40972601
