# total energy = -19909.00618456 eV

CRYSTAL
PRIMVEC
        7.95771980     0.00000000     0.00000000
        0.00003003     5.08165198     0.00000000
        0.00000000     0.00000000    12.15365834
PRIMCOORD
24 1
Ti      2.88430825     3.01138224     4.50892058     0.53159043    -0.50479258     2.07152856
Ti      5.07344106     2.07026968     7.64473789    -0.53159043     0.50479258    -2.07152856
Ti      6.86303124     2.07027139     1.56786010     0.53099573     0.50519856    -2.07237265
Ti      1.09471814     3.01138072    10.58579844    -0.53099573    -0.50519856     2.07237265
Ti      2.88429350     0.47055631     1.56790885     0.53184240    -0.52074371    -2.07250121
Ti      5.07345581     4.61109574    10.58574975    -0.53184240     0.52074371     2.07250121
Ti      1.09470332     0.47055447     7.64468914    -0.53116903    -0.52111524    -2.07302597
Ti      6.86304599     4.61109758     4.50896927     0.53116903     0.52111524     2.07302597
O       2.51867899     1.78933600     6.20191885     0.76561284     1.43475246    -1.87502190
O       5.43907038     3.29231586     5.95173962    -0.76561284    -1.43475246     1.87502190
O       1.46024831     1.78935652     0.12512873    -0.76695702     1.43541169    -1.87668386
O       6.49750113     3.29229540    12.02852935     0.76695702    -1.43541169     1.87668386
O       5.43905563     0.75148980     0.12508929    -0.76548172    -1.43483833    -1.87456270
O       2.51869374     4.33016205    12.02856879     0.76548172     1.43483833     1.87456270
O       6.49748631     0.75146934     6.20195823     0.76694622    -1.43598556    -1.87689109
O       1.46026293     4.33018257     5.95170018    -0.76694622     1.43598556     1.87689109
O       0.28914052     3.09094880     3.28300633    -2.18037188     0.71648676     0.27421494
O       7.66860885     1.99070305     8.87065208     2.18037188    -0.71648676    -0.27421494
O       4.26800958     1.99065581     2.79386151    -2.17796147    -0.71642633    -0.27436561
O       3.68973973     3.09099611     9.35979670     2.17796147     0.71642633     0.27436561
O       0.28912570     0.55012275     2.79382271    -2.18058091     0.71635434    -0.27387838
O       7.66862361     4.53152911     9.35983550     2.18058091    -0.71635434     0.27387838
O       3.68972497     0.55017006     8.87069081     2.17841244     0.71627104    -0.27501918
O       4.26802434     4.53148180     3.28296753    -2.17841244    -0.71627104     0.27501918
