# total energy = -4975.25840903 eV

CRYSTAL
PRIMVEC
        4.82848791     0.00000000     0.00000000
        0.00000000     2.52183903     0.00000000
        0.00000000    -0.00013301     6.72490311
PRIMCOORD
6 1
Ti      2.41424373     1.26085295     3.36245156     0.00000000     0.00000000     0.00000000
Ti      0.00000000     0.00000000     0.00000000     0.00000000     0.00000000     0.00000000
O       2.41424373     0.49144335     1.31058459     0.00000000     0.03638292     2.38072877
O       2.41424373     2.03026260     5.41431859     0.00000000    -0.03638292    -2.38072877
O       0.00000000     0.76935735     4.67303751     0.00000000    -0.03636981     2.38073494
O       0.00000000     1.75234861     2.05186561     0.00000000     0.03636981    -2.38073494
