# total energy = -39032.96052082 eV

CRYSTAL
PRIMVEC
        5.93200024     0.00000000     0.00000000
        0.00000000     9.29399984     0.00000000
        0.00000000     0.00000000     9.29399984
PRIMCOORD
46 1
Ti      4.42927798     7.05206501     6.80101602     0.82242602     1.52994579     0.20983115
Ti      4.36122701     6.70963801     2.55544801    -1.46496499     1.17820949    -1.36475723
Ti      4.46576602     2.19945301     7.10949900    -0.34220342     0.35384795    -1.07676889
Ti      4.38578602     2.56031501     2.01965101     0.20482264    -0.86685881     0.45254158
Ti      1.47727698     6.79232402     7.20447298    -0.13898515     1.57117370    -2.06143723
Ti      1.43534699     7.20378198     2.14612797     0.46317926    -0.12564960     0.03966468
Ti      1.47988000     2.41757098     6.90119700     0.37631400     0.22507343    -0.96965335
Ti      1.50181202     2.04908798     2.68907902    -0.57272373     1.33616398    -0.56075935
Ti      2.91330899     4.74284397     4.74145599    -0.71420516    -1.63317896    -0.16848085
Ti      2.95801600     4.72313498     9.05595501     0.95731256    -0.88878878    -0.70324428
Ti      3.11049202     9.16164102     4.60921402     0.12888868     0.66171118     1.10844721
Ti      3.03164498     9.19813499     9.28201302    -0.10082688    -0.13648655    -0.07143144
Ti      5.90330201     4.65956798     4.75879200     0.15197874    -1.35632144    -0.37300139
Ti      0.01962898     4.80144501     0.02420102    -0.93978946    -0.89224718    -0.29941639
Ti      0.09601699     9.22254900     4.71129998    -0.16777329    -0.29458323     1.66299528
Ti      0.00547799     9.26512798     0.04684298     0.24292074     0.10488074    -0.59513038
O       4.30552300     5.78659001     5.39148399     1.20165436     0.49919915     0.83817968
O       4.38855102     5.59608101     0.81972699     0.80785325    -0.59106701     0.83497095
O       4.58009900     0.67928399     5.71403298    -1.55509067     1.00819343    -1.30052797
O       4.39685000     1.11703301     0.55181598    -0.05692322     0.20018282     1.67373427
O       1.38841902     5.48442599     5.73595102     0.04578391     0.52626079    -0.62831820
O       1.60274300     5.46162300     0.74150798    -1.01672718     1.21921860     1.67794677
O       1.51745799     0.90905402     5.50207098     0.59873610     0.58979483    -1.06655749
O       1.53070198     0.61050100     0.98199502    -0.15150334     2.01161798     0.43091988
O       4.33148100     8.50639697     8.05674602     0.38931324     0.40597348     2.09617131
O       4.61829301     8.41070998     3.70627099    -1.62006633    -0.62658244     0.02425477
O       4.50964900     3.64278798     8.47854198    -0.10506123     0.39552477     0.66943555
O       4.39186399     4.02405299     3.82453697     0.10486968    -1.82886929    -2.29263811
O       1.31666200     8.06688801     8.51896001     0.92533009     1.89887069     0.57056580
O       1.43007501     8.38156401     3.57553802     1.06151042     0.91851075     0.41025334
O       1.49336201     4.05800500     8.02942999    -0.32197577    -1.18682192     1.13936833
O       1.46050799     3.62028599     4.02571799    -0.65344148    -0.62665109    -1.77960668
O       3.06119101     6.17071099     7.91334602     1.03713969    -0.52635772    -0.14273099
O       2.67507302     6.00612702     3.13276599     0.98476681     0.31848524     0.37064728
O       2.84732101     1.55175201     7.82524499    -0.43333569    -1.05238660     0.80634582
O       3.19470000     1.36337301     3.09599003     0.05549163     0.51534671     0.27877299
O       5.83670098     6.11721101     7.86014698    -1.57018974    -0.90098739     0.61346287
O       5.92427701     6.11328700     3.10913003     1.77243407    -0.81347600     0.53865505
O       0.06687398     1.43680101     7.79726601     0.99627533    -0.29530493     0.82270729
O       2.85500699     7.89981702     6.13811600    -0.19827249     0.05733665    -1.55066040
O       3.20563402     7.89495002     1.50639898    -1.45812045     0.19233350    -1.05613218
O       3.05829001     3.27430498     6.01559802    -0.08113376    -0.15755289     0.44309817
O       0.10301102     7.92758300     6.00622799     0.04769527    -1.49739972     0.73292588
O       5.79174202     8.08467700     1.42894701    -0.15858930    -1.74327055     0.29923230
O       5.77122598     3.19484801     6.03606898     0.08428002     0.74796993    -0.23497295
O       0.13468101     3.22714698     1.64548899     0.36092645    -0.42498423    -0.44890295
