# total energy = -19070.14728340 eV

CRYSTAL
PRIMVEC
        5.17600016     0.00000000     0.00000000
        0.00000000     5.50899976     0.00000000
        0.00000000     0.00000000     9.26300011
PRIMCOORD
22 1
Ti      1.96404099     3.45714403     3.23118799     0.21790956    -3.41905014     3.32648191
Ti      3.54499301     2.18798198     5.96429799     0.48634800     0.88321360    -0.37300910
Ti      4.51684999     2.41271102     1.46532102     1.65902884    -0.28448573     0.01160416
Ti      0.88246900     2.49792501     7.60509699     0.50116347    -1.66554042     1.79422598
Ti      1.92362000     0.80638702     1.29594000    -1.73944758    -0.50128508    -0.09135647
Ti      2.84627499     5.36551499     8.02811202     2.69832672    -0.32428462     1.31207891
Ti      0.48756402     5.26108599     6.20577501     0.88438705     3.50212508    -3.85601185
Ti      4.35076501     5.10587602     3.37927200     0.30207979     0.43416950     1.55730028
O       3.54005499     3.43941098     4.48326301    -0.00819385    -0.25847644     0.30653732
O       0.94661602     2.41095399     0.46671100     0.13204265     1.53647922    -1.35733934
O       4.99530698     3.84591002     6.86340401    -1.84938233    -2.48336082     1.50107949
O       3.54342802     0.75254799     0.43655102     1.18013293    -0.18294331    -1.84552208
O       1.33140499     0.30198098     8.86149200    -0.79615087    -2.48571312     0.04887772
O       4.39899597     0.59784699     4.97876400    -0.87776158     0.91316388     0.92330097
O       1.14197800     4.60396299     4.48962001    -0.09329663     0.95412388     3.28735819
O       0.32602801     3.94128797     2.63186401    -3.27851076    -1.86983958    -4.30800116
O       4.59972698     1.25779299     7.51779301    -0.94051811    -1.10162710    -1.60972895
O       3.07610698     1.73611102     2.39141999    -2.04068122     2.78243447     2.98185342
O       2.50797499     3.45862302     7.25971797     0.22912009     0.65374307     0.61596661
O       0.23144101     1.19877698     2.46897198     0.99643371    -1.72149639     0.77052776
O       2.04424998     0.80705801     6.72410302     0.00887828     2.15106952    -2.51964372
O       2.65489502     4.69789100     2.31038898     2.32809210     2.48758026    -2.47657979
