# total energy = -4980.03288549 eV

CRYSTAL
PRIMVEC
        3.63434552     0.00000000     0.00000000
        0.00000000     5.69447457     0.00000000
        0.00000000    -0.00007390     5.69447457
PRIMCOORD
6 1
Ti      1.81717270     2.84720027     2.84723722     0.00000000     0.00000000     0.00000000
Ti      0.00000000     0.00000000     0.00000000     0.00000000     0.00000000     0.00000000
O       1.81717270     1.10975481     1.10976921     0.00000000    -0.96147235    -0.96147235
O       1.81717270     4.58464574     4.58470524     0.00000000     0.96147235     0.96147235
O       0.00000000     1.73741551     3.95700759     0.00000000     0.96149267    -0.96149267
O       0.00000000     3.95698504     1.73746686     0.00000000    -0.96149267     0.96149267
