# total energy = -19068.45079830 eV

CRYSTAL
PRIMVEC
        5.17600016     0.00000000     0.00000000
        0.00000000     5.50899976     0.00000000
        0.00000000     0.00000000     9.26300011
PRIMCOORD
22 1
Ti      1.97938301     3.32831403     3.25857000    -1.21603120    -3.91112373     3.71162919
Ti      3.39708198     2.42764699     6.03505698    -0.88391551     0.30180083    -0.87112453
Ti      4.48299403     2.17987599     1.44551301     0.73542911    -0.83109269    -0.21973556
Ti      1.30229600     2.15350100     7.85012198    -2.21097650     3.86513645    -1.09468486
Ti      1.76003300     0.69318002     1.67807800     3.07956412     0.75942831    -2.37656204
Ti      3.18547702     0.06034801     7.81459599     0.75477898    -1.27508509     1.81284746
Ti      0.71886502     5.29908700     5.95440799    -0.40127916    -0.94411560     0.32507138
Ti      4.21480498     5.19518903     3.60947997     1.18830724    -0.62446668     0.45644991
O       3.49935300     3.42155299     4.59387899    -0.05093332     2.58365496    -2.40023471
O       1.40609301     2.24011599     0.32702202    -0.54301693    -0.24649072     3.54329052
O       4.51894400     4.29881298     6.77469501    -0.43243297     1.07160868     0.72389951
O       3.63640599     0.49561900     0.57716998    -0.71284042     0.00751482    -2.82689066
O       1.16567599     0.43030202     7.96604001     0.77211568    -3.82065943     0.22428461
O       4.47551998     0.84334698     5.10092700    -1.04321727     0.29524966     0.20950359
O       1.21853100     4.76251201     4.22649398    -1.08460973     0.58677507     2.24779523
O       0.21759001     3.24583799     2.72498200    -2.04738923     0.42158960    -1.58183093
O       3.90934498     2.01272398     7.66899800     1.64997547    -2.29771553     2.16118759
O       3.10871002     1.64964499     2.68677699    -2.55677252     0.11523509     0.65120257
O       2.05308602     3.78147899     7.27343203     0.86455433     0.87359639    -1.61873630
O       0.16771903     0.80422797     2.49307801     0.00464033    -1.67012367     0.25047851
O       1.73839299     1.42053802     5.83806101     1.45952685     1.05708606     0.21653196
O       2.65403600     4.38687702     2.22386798     2.67452241     3.68219776    -3.54437269
