# total energy = -19956.43555830 eV

CRYSTAL
PRIMVEC
        5.93400000     0.00000000     0.00000000
        0.00000000     9.29699974     0.00000000
        0.00000000     0.00000000     4.64899994
PRIMCOORD
24 1
Ti      4.55635302     7.08518902     2.58184898    -1.46045939    -0.79852606    -1.52621332
Ti      4.51049002     2.46299301     2.14005498    -0.14950148    -0.50977975     0.46254960
Ti      1.49852498     6.42563202     2.26618400     0.89721249     2.89102069     0.46292858
Ti      1.45918399     2.47219303     2.42360900     0.03156750    -1.27643158    -1.23501803
Ti      3.08817201     4.55547898     0.03516298     2.13917996     2.95655916    -0.17886914
Ti      2.86036301     0.29028701     4.39505498    -2.03617176    -2.51933056     2.86320160
Ti      0.04484999     4.39072398     0.00477498    -2.26250889     3.26607253    -1.01430186
Ti      5.85380801     0.20992700     4.61495400     1.62995351    -1.13883046     0.68804597
O       4.55493001     5.35328200     1.01326399    -0.15701116    -0.60899918    -1.00263419
O       4.40480899     1.13671999     0.68677100    -1.77922976     0.93823266     2.15842751
O       1.52732101     5.43287899     0.77321898    -0.44834914    -0.03877688     0.98117215
O       1.29913100     1.31134001     0.67255502     0.80161961    -0.38753430     1.92153549
O       4.22147500     8.62055199     3.61713299     1.54763550    -0.60880866     0.89504737
O       4.41237500     3.58968599     3.67061598     0.45497179    -0.39733097     0.84104647
O       1.21811602     8.67450299     3.80549998     2.39555941    -2.01650384    -0.16936223
O       1.59188598     3.72957998     3.81845699    -0.31953656    -1.50429311    -1.52958223
O       3.16146200     5.97828801     3.49583001    -1.24438997    -0.14478864    -0.71750928
O       2.76905300     1.32062401     3.06564102     1.42128733     2.14498320    -2.55562170
O       5.83262499     5.85010302     3.38411799     1.12983905     0.21680450    -0.06480931
O       0.00661900     1.45446801     3.23756801    -0.86201459     1.81052909    -2.74527251
O       2.90599698     7.53309697     1.69608199     0.07258793     0.37769648    -0.72792817
O       2.99754702     3.27831101     1.41444300    -0.57035265    -1.39478490     1.79882800
O       0.11966698     7.61689198     1.58193300    -0.39477093     0.46645819    -0.03610216
O       0.09576801     3.49352798     1.63439500    -0.83711833    -1.72363735     0.43044088
