# total energy = -4884.46972571 eV

CRYSTAL
PRIMVEC
        5.76176954     0.00000000     0.00000000
       -0.00000713     1.92058985     0.00000000
       -2.88092144    -0.96041990     6.53626646
PRIMCOORD
6 1
Ti     -0.00024659     1.44048819     1.63406621    -0.05933543    -0.03796055   111.87725605
Ti      2.88108740    -0.48031829     4.90219929     0.05933543     0.03796055  -111.87725605
O       0.00006083     0.48012664     1.06470422     0.05837512     0.03836216  -108.09937748
O       2.88077982     0.48004320     5.47156133    -0.05837512    -0.03836216   108.09937748
O      -0.00002643    -0.48020730     4.33283729    -0.00103101     0.00008176    -0.49814191
O       2.88086698     1.44037709     2.20342826     0.00103101    -0.00008176     0.49814191
