# total energy = -19070.98628435 eV

CRYSTAL
PRIMVEC
        5.17600016     0.00000000     0.00000000
        0.00000000     5.50899976     0.00000000
        0.00000000     0.00000000     9.26300011
PRIMCOORD
22 1
Ti      1.66817201     3.44404498     3.52173101     2.30527123     0.61830323    -1.08495991
Ti      3.87105901     2.27892299     5.92671498    -1.76449065     0.53928009    -0.53894482
Ti      4.18324602     2.31584501     1.39809899     1.59974664    -2.17432850     1.99594118
Ti      1.09262301     2.95229898     7.92518102    -1.55167522     0.22397736    -1.05570306
Ti      1.77261202     0.43314502     1.04814498    -0.44812134     1.96274000     1.88788565
Ti      3.19258900     5.22053201     7.84261000     0.43545505     0.97533755    -0.54164242
Ti      0.75056501     5.43737398     6.30704599    -1.26192515    -0.95490473    -0.99209292
Ti      4.37572699     5.00609198     3.49000498    -0.39357922     1.62987381     0.23068923
O       3.53943702     3.56214602     4.37572498     0.44939480    -1.04514328     0.23232471
O       0.83895502     2.02038900     0.24600498    -0.47880849    -0.42453891     0.00235230
O       4.42035097     3.89005002     7.87623598     2.03070328     0.08908567    -0.30535230
O       3.38098399     0.95993198     0.23993299     0.34215482    -0.28618034    -1.39569302
O       1.77780399     4.59519098     8.94888700    -0.78953774    -0.42154512    -0.31481370
O       4.45564800     0.76962698     5.01464698    -1.01657986     0.37261006    -0.02350529
O       0.97827199     4.87239101     4.52589199    -0.15777529    -1.36796649    -0.86469214
O       0.11575800     3.67952701     2.49037402    -0.45496150     0.14784440    -1.67589503
O       4.93026501     1.42233097     7.23591902     0.65373665    -0.65006434     0.82268313
O       2.50699902     2.03899001     2.20894999     1.06792918     1.37972980     0.63408133
O       2.32204300     3.82813099     6.32561498    -1.43180623    -0.80815047     3.38303128
O       0.06981700     1.13103001     2.60376401    -1.40060871    -0.84711453    -2.04575170
O       2.25358202     0.87024998     6.48893099     1.73617379     1.91762252     1.31032362
O       2.58141902     4.93823098     2.45190802     0.52930369    -0.87646754     0.33973387
