# total energy = -19917.69654622 eV

CRYSTAL
PRIMVEC
        6.38411169     0.00000000     0.00000000
        2.30748432     6.39081041     0.00000000
        0.00000000     0.00000000    11.61067983
PRIMCOORD
24 1
Ti      3.68134660     3.78718823     4.30747943    -0.16504226    -2.16900066     0.66385471
Ti      5.01024965     2.60362201     7.30320054     0.16504226     2.16900066    -0.66385471
Ti      6.44595622     2.60362418     1.49781420    -0.19996917    -0.92383319     0.06723617
Ti      2.24564006     3.78718625    10.11286589     0.19996917     0.92383319    -0.06723617
Ti      2.52760460     0.59178319     1.49786075    -0.16504226    -2.16900066    -0.66385471
Ti      6.16399167     5.79902717    10.11281934     0.16504226     2.16900066     0.66385471
Ti      1.09189793     0.59178084     7.30315399     0.19996917     0.92383319     0.06723617
Ti      7.59969835     5.79902959     4.30752598    -0.19996917    -0.92383319    -0.06723617
O       2.83311617     2.25031291     5.92484105     1.83874748     2.10989483    -0.76481194
O       5.85848007     4.14049733     5.68583891    -1.83874748    -2.10989483     0.76481194
O       1.98399533     2.25033869     0.11953849    -0.41298617    -0.46493070     1.37296317
O       6.70760099     4.14047160    11.49114115     0.41298617     0.46493070    -1.37296317
O       4.70473805     0.94509216     0.11950081    -1.83874748    -2.10989483    -0.76481194
O       3.98685819     5.44571808    11.49117883     1.83874748     2.10989483     0.76481194
O       5.55385896     0.94506637     5.92487873     0.41298617     0.46493070     1.37296317
O       3.13773722     5.44574388     5.68580124    -0.41298617    -0.46493070    -1.37296317
O       1.63549227     3.88725306     3.13633429     0.58393348     2.33490681     2.26899990
O       7.05610398     2.50355717     8.47434567    -0.58393348    -2.33490681    -2.26899990
O       4.32793822     2.50349764     2.66904260     0.71135792     1.94659115     1.25446381
O       4.36365802     3.88731260     8.94163717    -0.71135792    -1.94659115    -1.25446381
O       0.48175024     0.69184790     2.66900550     0.58393348     2.33490681    -2.26899990
O       8.20984600     5.69896234     8.94167427    -0.58393348    -2.33490681     2.26899990
O       3.20991600     0.69190743     8.47438264    -0.71135792    -1.94659115     1.25446381
O       5.48168024     5.69890281     3.13629726     0.71135792     1.94659115    -1.25446381
