# total energy = -19952.77324452 eV

CRYSTAL
PRIMVEC
        5.41683797     0.00000000     0.00000000
        1.69151466     5.51142213     0.00000000
        0.00000000     0.00000000     9.80836848
PRIMCOORD
24 1
Ti      2.96573322     3.26606368     3.63883475     1.05772652    -2.40265463     1.04045950
Ti      4.14261932     2.24535858     6.16953379    -1.05772652     2.40265463    -1.04045950
Ti      5.36079802     2.24536047     1.26531033    -2.24449624    -0.46607896     0.74867029
Ti      1.74755461     3.26606199     8.54305832     2.24449624     0.46607896    -0.74867029
Ti      2.11997602     0.51035270     1.26534965     1.05772652    -2.40265463    -1.04045950
Ti      4.98837655     5.00106971     8.54301899    -1.05772652     2.40265463     1.04045950
Ti      0.90179729     0.51035065     6.16949446     2.24449624     0.46607896     0.74867029
Ti      6.20655528     5.00107177     3.63887408    -2.24449624    -0.46607896    -0.74867029
O       2.31007446     1.94066546     5.00513536     0.94281642     1.48262307    -0.83870625
O       4.79827809     3.57075685     4.80323318    -0.94281642    -1.48262307     0.83870625
O       1.58960512     1.94068770     0.10098267     0.13199329    -0.50778972     0.72250340
O       5.51874749     3.57073466     9.70738560    -0.13199329     0.50778972    -0.72250340
O       3.95252086     0.81504571     0.10095085    -0.94281642    -1.48262307    -0.83870625
O       3.15583169     4.69637660     9.70741742     0.94281642     1.48262307     0.83870625
O       4.67299026     0.81502352     5.00516719    -0.13199329     0.50778972     0.72250340
O       2.43536225     4.69639885     4.80320135     0.13199329    -0.50778972    -0.72250340
O       1.22568136     3.35235941     2.64948503     0.20381631     0.77985393     0.66277331
O       5.88267119     2.15906290     7.15888351    -0.20381631    -0.77985393    -0.66277331
O       3.56785976     2.15901151     2.25473043     1.21208404     0.44281715    -0.31342248
O       3.54049279     3.35241080     7.55363794    -1.21208404    -0.44281715     0.31342248
O       0.37992408     0.59664828     2.25469911     0.20381631     0.77985393    -0.66277331
O       6.72842842     4.91477404     7.55366927    -0.20381631    -0.77985393     0.66277331
O       2.69473556     0.59669967     7.15891479    -1.21208404    -0.44281715    -0.31342248
O       4.41361699     4.91472264     2.64945370     1.21208404     0.44281715     0.31342248
