# total energy = -19075.84319678 eV

CRYSTAL
PRIMVEC
        7.60600008     0.00000000     0.00000000
        0.00000000     7.60600008     0.00000000
       -1.89786986    -1.89786986     4.85670466
PRIMCOORD
22 1
Ti      3.82899699     6.60106798     1.20217101     0.45794990    -0.10713071     0.18739518
Ti      3.80844300     2.84665398     1.19409900     0.73766931     0.15898139    -0.40031345
Ti      0.24089900     6.68281899     1.00810399    -0.61840633    -0.68878748     0.57380282
Ti     -0.00330699     2.80139499     1.23337099    -1.16717894     0.87290862    -0.88872579
Ti      5.64547521     2.91503421     3.57591479     0.39869417    -0.38348815     0.45463189
Ti      5.96203825    -0.84487080     3.63482682     0.42371796    -0.41225032    -0.19141742
Ti      1.88321023     2.79888822     3.58129483    -0.34345529    -0.62889361     0.99923236
Ti      1.47476720    -1.05654376     3.90028679    -0.55015072     0.78775956    -0.84336200
O       3.89538301     4.70395299     0.68476499    -0.56142732    -0.10426496     1.05606739
O       4.16783601     0.93542800     0.73174403    -0.99053920     0.10862966     1.72584515
O      -0.05932802     4.81051802     0.73467498     0.64484500    -0.05888754     0.22608413
O       7.33481003     0.87885498     0.63403399     0.60210090     1.13592254     1.41902244
O       5.71487522     4.78742022     3.90391182     0.26397166     0.46560176     0.17046060
O       5.55342022     0.99092822     3.99902280     0.70484222    -0.75330882     0.26571847
O       2.02578423     4.70657120     4.21631679    -0.61354052     0.29399496    -1.73891767
O       1.68183923     0.85491321     4.01392983     0.13536195     0.73176631     0.47394011
O       3.80362320     2.88907320     3.18411883    -0.85193818    -0.24383452    -0.26731975
O      -0.01842177     2.85976022     3.24651883     0.24255051    -0.02308980    -0.48168530
O       5.62329898     6.52417102     1.82387199    -0.04467602     0.45196668    -0.06887371
O       5.70472301     2.96230900     1.59639002     0.03928570    -0.28905947     0.03775564
O       1.95081299     6.74596402     2.10422502     0.71623350    -0.72787032    -1.94031149
O       1.86220200     2.97678798     1.65591500     0.37408974    -0.58666580    -0.76902958
