# total energy = -19517.75306652 eV

CRYSTAL
PRIMVEC
        7.60600008     0.00000000     0.00000000
        0.00000000     7.60600008     0.00000000
       -1.89786986    -1.89786986     4.85670466
PRIMCOORD
23 1
Ti      3.83889398     6.70793898     1.13176599     0.30430020    -1.56665421    -0.42167316
Ti      3.85037199     2.76808301     1.20403398    -0.41000317     2.50757496    -0.15610793
Ti      0.15088002     6.67741397     1.20767398    -1.82313136    -0.09145006    -0.16815484
Ti     -0.02105400     2.78770602     1.18654102    -0.23213291     0.18239978    -0.07912830
Ti      5.49642524     2.80378623     3.77205481     0.61094293     1.19833481     0.98675582
Ti      5.69349625    -0.90390179     3.48609579     0.87853136    -0.59293903     1.35624559
Ti      2.00274724     2.93396421     3.61532680    -2.19452401    -1.28912152     1.23414206
Ti      1.97768223    -0.90781876     3.58729480    -1.56431477     0.48410008    -0.13389410
O       3.86131400     4.65250500     0.68006198    -0.22735142     0.53395122     2.20990718
O       3.73507898     1.01731400     0.64583803    -0.13025831    -1.48495944     1.21551338
O      -0.12310700     4.69644698     1.02061400     0.25048596    -0.18472740    -0.81498935
O       0.11800002     0.93666199     0.75904301     0.07112291     0.19773745     0.00785087
O       5.54294024     4.70196022     4.19128480     0.94112695     0.30436962    -1.53979749
O       5.56613021     0.96975822     4.09109181     0.27868326    -0.80130285    -0.16575497
O       1.86326321     4.71069122     4.08281183    -0.62558306     1.85878306    -0.33365372
O       1.81814820     0.99407021     4.05232682     0.13381466    -1.04232972    -0.44969819
O       3.70689420     2.88383625     3.49733880     2.42466534    -0.20578989    -1.85565557
O       3.78236520    -0.98239476     3.32859179     0.25515714     0.29793826    -1.37559392
O      -0.03262177    -0.74386880     3.22564279     0.32380562    -0.80010626    -0.62158602
O       5.68202400     6.72736598     1.48075701    -0.75047444     0.02739537     1.37335706
O       5.73854801     2.66353500     1.87368202    -0.10273798     0.03996833    -0.65488773
O       1.90980599     6.40679601     1.47195700     1.47168637     0.69232918     1.34867395
O       1.81996301     2.86778101     1.75944599     0.11618871    -0.26550172    -0.96187036
