# total energy = -19074.44138524 eV

CRYSTAL
PRIMVEC
        5.17600016     0.00000000     0.00000000
        0.00000000     5.50899976     0.00000000
        0.00000000     0.00000000     9.26300011
PRIMCOORD
22 1
Ti      2.02780701     3.40696601     3.25787101    -1.46732500     1.64712514    -0.64709548
Ti      3.45400701     2.21037798     5.93932802     0.06062689     0.38187195    -0.27978318
Ti      4.45756902     2.26093298     1.24254099    -0.02879817     1.33260558    -2.19890646
Ti      0.69813598     3.25499699     8.04186402    -0.34951872     0.86618389     0.95136997
Ti      1.84300800     0.55270701     1.43775998     0.53147705    -0.99002215    -3.38159095
Ti      3.12040399     5.07482898     8.07577698     0.24900603    -0.71861872     1.46892166
Ti      0.53878399     0.23266299     6.09398902     1.05374002    -0.36637617    -1.62068365
Ti      4.59878102     5.04159099     3.38964800    -0.47740261    -1.35613246     0.03541285
O       3.51074000     3.32821502     4.23058701     1.22175345    -0.08452993     3.11039217
O       0.81734601     2.00367198     0.11569699     0.18036835    -0.77449215     0.12843308
O       4.14206401     3.65625998     9.00439198     0.92101346    -0.36739792     0.28747824
O       3.35844099     0.83766499     0.23929702     0.97753661     1.03159151    -0.98784468
O       1.63413200     4.71946201     9.21114698    -1.18263924    -0.31126429    -0.99736831
O       4.17174498     0.72244400     4.62126000    -0.44840596     0.64639100     1.40943788
O       0.99450202     4.79480500     4.43591302     0.50946968    -0.73972311     0.66006799
O       0.34405702     3.55792499     2.31214601    -0.96690844    -1.22898905     0.04056611
O       0.07837999     1.97923002     6.48560299    -0.14599938     1.49498674     1.13319717
O       2.68356102     1.98517501     2.26641499     0.43390416    -0.00320951     0.19117136
O       2.41874898     3.50166699     7.13263500    -0.50525333    -0.85722025    -1.48159052
O       0.08653800     0.66771501     2.02983900    -0.52502717     0.27466025     1.15410359
O       2.39623201     0.73134698     6.60255503    -0.42278850    -0.02835362     0.22204775
O       2.86176898     4.72891201     2.28771998     0.38117081     0.15091224     0.80226367
