# total energy = -19959.33659476 eV

CRYSTAL
PRIMVEC
        7.60600008     0.00000000     0.00000000
        0.00000000     7.60600008     0.00000000
       -1.89786986    -1.89786986     4.85670466
PRIMCOORD
24 1
Ti      3.72401399     6.74504198     1.33391699     0.92240726     1.45992948    -1.08776627
Ti      3.84045902     3.03845602     1.36861001    -2.27694846    -0.88323263    -2.50383735
Ti      0.08642899     6.57959598     1.17207998    -0.88046406     0.15684918    -1.08970540
Ti      0.03227299     2.85202301     1.10434699     1.39644918    -0.58244199    -0.12653149
Ti      5.69864424     2.71968621     3.49193881     0.49720577     0.11941390     0.95112906
Ti      5.81082823    -1.08256076     3.60600381    -0.31409379    -0.02280107    -0.35516024
Ti      1.75934724     3.09237024     3.74314681     0.48057227    -3.95805101    -1.65173873
Ti      1.81565324    -0.92299577     3.68527281    -0.05597679     2.19841743     1.25204286
O       3.68023600     4.93162002     0.95414601     0.52680663    -1.30419231    -0.67713395
O       3.64919399     1.10225499     0.75791602     0.32219071    -1.82661752     0.74554640
O       0.01642799     4.66137798     0.65809599    -0.00891170     0.49569448     0.09179227
O       0.36544700     0.87127701     0.75979598    -1.31364111    -0.75870943    -0.91633045
O       5.91104324     4.62083020     3.88117683    -1.06993824     0.68429319     0.86194106
O       5.81608021     0.87941824     3.95802881    -0.02600800    -0.82683314    -0.17410437
O       1.83560925     4.86260922     4.14564580     0.17029065    -0.22935714    -0.31003993
O       1.71821620     1.09469220     4.26389379     0.32036214     0.08092499    -0.92281760
O       3.84595622     2.69241823     3.25893582    -0.57029326     0.85861276     0.70213948
O       3.66176824    -0.89984977     3.10158581     1.38772439     0.25321545     3.30532532
O       0.08179525     2.72958225     2.96705080    -2.02372659     0.59882095     2.56755702
O      -0.03938878     6.35275923     3.07114484     0.44632028     1.03254616     1.18305062
O       5.71581599     6.66100498     1.59883302    -0.20760894     0.24766392     0.00888805
O       5.67643599     2.82468900     1.53297299     1.10003121    -0.10879987     0.01311726
O       1.82220001     6.35799401     1.76241599     0.09673574     0.86992999    -1.48830444
O       1.89209098     2.75239799     1.76218199     1.08051447     1.44472423    -0.37905968
