# total energy = -4985.50905841 eV

CRYSTAL
PRIMVEC
        3.22344195     0.00000000     0.00000000
        2.16327685     4.56391305     0.00000000
       -0.00001413    -0.00006787     5.19021860
PRIMCOORD
6 1
Ti      2.69335222     2.28192262     2.59510919     0.00000000     0.00000000     0.00000000
Ti      0.00000000     0.00000000     0.00000000     0.00000000     0.00000000     0.00000000
O       2.03330894     0.88942627     1.01149713    -0.67422372     0.72632766     0.30064820
O       3.35339545     3.67441898     4.17872125     0.67422372    -0.72632766    -0.30064820
O       0.66003737     1.39246896     3.60660739     0.67384319    -0.72574839     0.30039855
O       1.50322521     3.17137614     1.58361098    -0.67384319     0.72574839    -0.30039855
