# total energy = -19516.92254628 eV

CRYSTAL
PRIMVEC
        5.17600016     0.00000000     0.00000000
        0.00000000     5.50899976     0.00000000
        0.00000000     0.00000000     9.26300011
PRIMCOORD
23 1
Ti      1.95094603     3.23158302     3.42865699    -0.80184690    -1.03876411     3.42366321
Ti      3.42374601     2.30845701     5.86067498    -1.69169960     0.55219372    -2.35259523
Ti      4.27358901     2.05882701     1.59192498     2.34313640    -0.19984729    -1.71281557
Ti      0.72064601     3.35664401     7.81849698     0.51581079     1.71453769     0.74232429
Ti      1.96177299     0.14352901     1.39188698    -0.13438750    -0.31775273    -1.47137167
Ti      3.12868799     5.29866498     7.85922600     1.00283962    -1.13399704     1.03752690
Ti      0.75145403     0.58820999     5.88551699    -0.86299855    -0.69431792    -2.97847474
Ti      4.59214398     4.83902802     3.33529297     0.85074184     0.39316476     3.39013139
O       1.91081301     1.81674498     4.69913901    -0.80377060     0.14983186     0.72059178
O       3.62492698     3.66488298     4.43383298     0.22185286    -1.62301256     0.93221139
O       4.95629402     2.67690101     9.23133398     0.31256578     0.60172732    -0.89813912
O       3.46858500     0.66843702     0.31592998    -0.14270888    -0.01211067    -0.49499076
O       1.67461898     4.70657999     8.94505300    -0.17842923    -0.36215647     1.52674682
O       4.25345699     0.72781700     4.80685198     0.88638069     0.27713391     0.15997333
O       1.07627101     4.69538799     4.53339599    -0.42591548    -0.24364554    -0.51905887
O       0.38148600     3.27498598     2.45728499    -1.04824866     0.20339028    -0.37277436
O       0.00531299     2.40592098     6.41573699     0.14718131    -0.65203586     0.42028065
O       2.74917202     1.57706002     2.39389898    -1.51996399     1.25776742     0.62183310
O       2.49288798     3.81099199     6.79532498    -0.06350190    -0.78424306     0.85892541
O       0.19610102     0.60798402     2.12447002     0.55015046     0.20416906    -0.73534915
O       4.95686400     4.95524900     7.22875999    -0.13259775     0.08381902     0.26767996
O       2.22965601     1.13020201     7.11164598     0.03986754     1.22823161    -0.39744359
O       2.90473103     4.40701502     2.35735802     0.93554174     0.39591687    -2.16887467
