# total energy = -19958.38636804 eV

CRYSTAL
PRIMVEC
        7.60600008     0.00000000     0.00000000
        0.00000000     7.60600008     0.00000000
       -1.89786986    -1.89786986     4.85670466
PRIMCOORD
24 1
Ti      3.83584300     6.56158702     1.22149403     1.43070580     0.36732362     0.01258735
Ti      3.55444898     2.76096198     1.12313199     4.64548069    -0.42702440     1.49165871
Ti      0.07692401     6.79716599     1.31161201    -2.34757927    -0.94180521    -2.17841758
Ti      0.03008399     2.92773600     1.24688199    -4.74389381     1.48850679    -0.78589628
Ti      5.75346325     2.96363422     3.67688779    -0.20119095    -0.01607197    -0.66033487
Ti      5.70189222    -0.88976080     3.63421282    -1.30652018     0.58792486    -0.20157559
Ti      1.94675124     2.63463023     3.62182182     1.20014615     1.64591158     1.12434049
Ti      1.83457524    -1.13849675     3.61334281     1.40887404    -0.54279890     0.84642162
O       3.84893400     4.71440498     0.72076900    -0.58410009    -1.81592456    -0.73767522
O       3.83578300     0.82258402     0.85383802    -0.68326758     1.42965370    -1.09618253
O      -0.07388500     4.79462000     0.81799097     0.72151558     0.64274775    -0.09783745
O      -0.09411200     1.07125701     0.77654100     0.81203593    -0.40399810     0.83031725
O       5.45747922     4.87949823     4.11089182     0.89973372    -0.18634951     0.94704358
O       5.63765725     1.10151224     3.81220884     1.53074694    -2.22279870     2.04139316
O       1.93464721     4.63572024     4.07942980     0.57871543     1.14371967    -1.18781411
O       2.12711723     0.77340324     4.02686080    -1.41659712     1.37503034     0.25042528
O       4.00319923     2.61110121     3.18773883    -6.65394469     0.96269980    -0.85094136
O       3.90960322    -0.85658477     3.04342484    -1.88270719    -0.53687534     1.73438687
O       0.01713423     3.19913323     3.20369379     1.33045433    -1.70762425     0.03911215
O      -0.00740880    -0.89650580     3.35106182     1.59710586    -0.03583862    -0.42674415
O       5.79180002     6.50627599     1.69416298     0.43810843     0.49609788    -0.60764935
O       5.62222999     2.91990598     1.73769400     1.62677485     0.35581793    -1.60985082
O       1.93683398     6.68018999     1.65196898    -1.04561199    -0.45339107     0.15308045
O       1.80263902     3.14175200     1.53288600     2.64501487    -1.20493303     0.97015214
