# total energy = -19073.99229639 eV

CRYSTAL
PRIMVEC
        7.60600008     0.00000000     0.00000000
        0.00000000     7.60600008     0.00000000
       -1.89786986    -1.89786986     4.85670466
PRIMCOORD
22 1
Ti      3.83464003     6.57158001     1.06229100    -0.76542798    -0.44616653     1.40265814
Ti      3.65339899     2.80636899     1.43291399    -0.35765010     1.23868032    -1.17536893
Ti     -0.07776302     6.78907302     1.21118401     2.12280049     0.32601009    -1.00479572
Ti     -0.31943901     2.99079700     1.38697601     1.17163903     0.33784488    -0.88548234
Ti      5.48193425     2.99894320     3.67974281     1.53396160     1.48547597     1.73930308
Ti      5.91333325    -0.95103677     3.44586382    -1.57724253    -0.88664243     2.01785933
Ti      1.76496224     2.73014921     3.70201582    -0.97129577     0.05451383    -0.17819423
Ti      1.96412122    -0.86967979     3.65578081    -0.24069263     0.07167004    -0.10029389
O       3.52649800     4.64512298     0.79582803     0.73243120     0.98006118    -0.42163665
O       4.11726000     1.11019302     0.97119599    -0.60909379    -2.42126325    -1.01955257
O      -0.18632500     4.85019398     0.90190399     1.02602609    -0.76511533    -1.03501673
O      -0.05218100     1.10629198     0.47587000    -0.92782251     1.11687914     1.78022915
O       6.07442422     4.89231723     3.85583881    -1.11636904    -1.05639983     1.64711280
O       0.00960822    -0.50809377     3.22059179     1.60609906     0.07425734    -1.12788115
O       1.84907321     4.60366120     4.12199984     0.04864040     2.86850707    -1.34158362
O       2.11038925     0.91126222     4.05414582    -0.13838942    -0.28868948    -0.31015975
O       3.66110524     2.90366722     3.35359880    -0.12001246    -0.77095354     0.59288067
O      -0.28577778     2.65749021     3.23314679     1.48697415    -1.08642004     0.44515608
O       5.71410500     6.39966900     1.54969103    -1.31673621     1.21587154    -0.42320348
O       5.48109598     3.38384202     1.85466302     0.42327007    -1.09378703    -1.76555046
O       2.04660497     6.59899202     1.68052301    -0.41727683     0.56815385     0.77664596
O       1.83390498     3.10940298     1.72234500    -1.59383284    -1.52248753     0.38687429
