# total energy = -19516.61312590 eV

CRYSTAL
PRIMVEC
        5.17600016     0.00000000     0.00000000
        0.00000000     5.50899976     0.00000000
        0.00000000     0.00000000     9.26300011
PRIMCOORD
23 1
Ti      1.82256598     3.31589000     3.36993599     0.30404952    -1.02034344     3.62873653
Ti      3.39703002     2.17662001     5.77778799    -0.19495860     0.78195555    -2.67424833
Ti      4.32100001     2.11877200     1.59661100     1.38577421    -0.34949738    -2.19801660
Ti      0.80460999     3.42530798     7.70305199     0.03454304    -0.17042229     1.88692045
Ti      1.92370001     0.17482000     1.26763500     0.45018208     1.48607658    -0.11415471
Ti      3.21965499     5.06411600     7.90678798     1.58029186    -0.55752259     1.50702002
Ti      0.86064801     0.57315701     5.97428701    -1.05546189    -1.42802414    -3.65799647
Ti      4.46931897     4.96564199     3.34188398     1.45443452     0.27098615     3.14542501
O       1.81110401     1.77986699     4.82473003    -0.33725661     0.41848396    -0.74870320
O       3.50401098     3.60080999     4.39930702     0.71473095    -1.61979199     0.91892315
O       4.86152801     2.75592601     9.23525799     0.67922503     0.61415475    -0.49653574
O       3.52234300     0.56190099     0.35667901     0.34721013     0.54394639     0.25626015
O       1.87612999     4.55823599     9.02757899    -2.31598425    -1.59272984     1.50807778
O       4.28163002     0.63918500     4.73878698    -0.23020818     1.50541077     1.04024430
O       0.95973798     4.60966498     4.55013598    -0.15498538    -0.02770699     0.64007123
O       0.20882398     3.49420501     2.44755702    -0.59471515     0.45778432    -0.97604254
O       5.17427901     2.15258298     6.61936201    -0.43174186    -0.07147027     0.24940456
O       2.57362001     2.05523601     2.16868601     0.25508387    -0.16175973    -0.86840404
O       2.66930499     3.54425502     6.89741000    -0.74013449    -0.81552569     0.71102522
O       0.38493798     0.88402801     2.33783900    -0.99730326    -1.16954564    -1.19302805
O       5.01217101     4.92008898     7.33551298     0.32961375     0.35326739    -0.50098581
O       2.42978698     0.80697800     6.99626899    -0.13418644     2.15874967    -0.43687096
O       2.74127003     4.79496301     2.61409699    -0.34820283     0.39352420    -1.62712195
