# total energy = -4952.18067652 eV

CRYSTAL
PRIMVEC
        5.18559269     0.00000000     0.00000000
       -0.00000717     2.49676669     0.00000000
       -2.59282540    -1.24845310     5.58655242
PRIMCOORD
6 1
Ti     -0.00022154     1.87265781     1.39663781    -0.02045082    -0.02095681    38.23059992
Ti      2.59298161    -0.62434438     4.18991392     0.02045082     0.02095681   -38.23059992
O       0.00005518     0.62417970     0.91000361     0.01921952     0.02021891   -30.55340208
O       2.59270473     0.62413363     4.67654817    -0.01921952    -0.02021891    30.55340208
O      -0.00002118    -0.62420809     3.70327971    -0.00152929     0.00005579    -1.44111388
O       2.59278104     1.87252141     1.88327207     0.00152929    -0.00005579     1.44111388
