# total energy = -19516.91552968 eV

CRYSTAL
PRIMVEC
        5.93400000     0.00000000     0.00000000
        0.00000000     9.29699974     0.00000000
        0.00000000     0.00000000     4.64899994
PRIMCOORD
23 1
Ti      4.46579598     6.96728002     2.18508198    -1.43283467     1.71929141    -0.97967783
Ti      4.49360001     2.23968101     2.39511100     1.45514800     0.43730676    -0.32334745
Ti      1.37721401     6.99690601     2.39699699     1.30455149     1.18437603    -1.30567146
Ti      1.52727402     2.38501298     2.38581198    -1.60406686     0.15974141    -1.23514710
Ti      2.87356000     4.50301402     0.12318701     1.61277365    -0.28701775     0.69656070
Ti      2.89472899     0.20180799     4.64507398     1.43137506    -1.74817545     1.16582345
Ti      5.93109498     4.67408199     0.00973099    -1.48294138    -0.84526848     0.24855686
Ti      0.01030398     9.24500300     4.56005599    -1.37961873     0.13025008    -0.13588260
O       4.40734999     5.54033801     0.91802500    -0.59768838     0.14026479    -0.61426454
O       4.50636900     0.94149100     0.88182002     0.00100016    -0.66967749     0.03767233
O       1.46889402     5.54547097     0.86508701     0.91114916     0.36858680    -0.03847195
O       1.53006998     1.04840703     0.81554300    -0.30931925    -0.64142414     0.56270619
O       4.58831998     8.49737799     3.47828699    -0.04598805    -0.08021356     1.58676410
O       4.54880002     3.65235598     3.96775599    -1.29401433    -0.13995651    -2.02056310
O       1.61008100     8.35011601     3.72165402    -0.79096341    -0.05306733     0.01011112
O       1.38138102     3.56700001     3.85482401     1.40926973     1.72281845    -0.01248528
O       2.92650201     1.48358700     3.29160198     0.86953456    -0.17262959    -0.57465360
O       5.86224399     6.02047402     2.98535700     0.63612587    -1.54835515     2.52417607
O       0.08294901     1.48533201     3.25796901     0.15928350    -1.06171405    -0.11437917
O       2.92975301     7.84411000     1.32199902     0.14119732    -0.48840385     0.87090315
O       3.16003502     3.17722699     1.43031901    -1.49118794     0.63419625     0.28205038
O       5.93298800     7.84998800     1.40215001     0.54291383     0.95214259    -1.42502546
O       0.04233100     3.23384398     1.42914101    -0.04569880     0.28692828     0.79424543
