# total energy = -19962.15427659 eV

CRYSTAL
PRIMVEC
        7.60600008     0.00000000     0.00000000
        0.00000000     7.60600008     0.00000000
       -1.89786986    -1.89786986     4.85670466
PRIMCOORD
24 1
Ti      3.80806998     6.61004802     1.20385602    -0.33807962     0.25522451     0.55402434
Ti      3.78866098     2.84738499     1.21705301     0.35392148    -0.01363894    -0.05406183
Ti     -0.00728402     6.66720302     1.22454198     0.38884839     0.25019157    -0.59244564
Ti     -0.02029400     2.88077898     1.20516901    -0.15575260    -0.50928687     0.13694292
Ti      5.70078820     2.85952923     3.65613780     0.28878461     0.12485127    -0.09756646
Ti      5.72359923    -0.94635980     3.63046884    -0.24800510    -0.21863384     0.36438047
Ti      1.91088022     2.85218722     3.63998979    -0.26318259    -0.22123117    -0.33774204
Ti      1.89562023    -0.97175380     3.67915981     0.13552881     0.22049429    -1.00358987
O       3.74163898     4.76988498     0.74919502     0.28670331    -0.22362924     0.55640004
O       3.77051602     0.93173403     0.71895302     0.08781529    -0.12860071     1.04076006
O       0.01155898     4.76766599     0.79491001    -0.00673681    -0.59428912    -0.22811761
O      -0.01732600     0.96345799     0.82492701     0.21508134    -0.13121450    -0.65934499
O       5.71322524     4.71634521     3.97967883     0.07355440     0.76450521     0.66419641
O       5.71671723     0.91153623     4.00213981    -0.14649457     0.39298709     0.69691757
O       1.88237725     4.72611620     4.04689281    -0.02404137     0.20020288    -0.01124370
O       1.86524122     0.93949621     4.11800682     0.26027081     0.27130342    -0.63502852
O       3.82577922     2.91157122     3.21774080    -0.43011152    -0.46318389     0.07204568
O       3.82261124    -0.97638076     3.23966879    -0.63492568     0.02145998    -0.61467977
O      -0.05894278     2.76936320     3.23288781     1.51073861     0.26500036    -0.47229486
O      -0.01252578    -0.96485179     3.17727181     0.36490164    -0.05088164     0.52678195
O       5.73374901     6.65222403     1.59683802    -1.26953254    -0.03560079     0.11644351
O       5.74520300     2.87347501     1.60091702    -0.81590312     0.02557786    -0.11538575
O       1.84909602     6.66644101     1.61373200     1.37300868     0.00050805     0.22382361
O       1.96309001     2.89698302     1.66647902    -1.00639160    -0.20211604    -0.13121476
