# total energy = -19942.46392044 eV

CRYSTAL
PRIMVEC
        5.70051844     0.00000000     0.00000000
        2.33351728     5.60036606     0.00000000
        0.00000000     0.00000000    10.42139148
PRIMCOORD
24 1
Ti      3.44900398     3.31877185     3.86626191     0.98792670    -3.02982431     0.96465410
Ti      4.58503183     2.28159437     6.55512969    -0.98792670     3.02982431    -0.96465410
Ti      5.86700689     2.28159628     1.34439223    -2.41809308    -0.65025074     0.70924344
Ti      2.16702897     3.31877017     9.07699943     2.41809308     0.65025074    -0.70924344
Ti      2.28224545     0.51858879     1.34443400     0.98792670    -3.02982431    -0.96465410
Ti      5.75179039     5.08177760     9.07695765    -0.98792670     3.02982431     0.96465410
Ti      1.00027031     0.51858673     6.55508785     2.41809308     0.65025074     0.70924344
Ti      7.03376554     5.08177966     3.86630369    -2.41809308    -0.65025074    -0.70924344
O       2.62592117     1.97198415     5.31795632     1.42408520     1.96659897    -1.00583084
O       5.40811459     3.62838208     5.10343528    -1.42408520    -1.96659897     1.00583084
O       1.86772302     1.97200678     0.10729407     0.26424137    -0.82980894     1.14728451
O       6.16631286     3.62835954    10.31409718    -0.26424137     0.82980894    -1.14728451
O       4.24135603     0.82819891     0.10726024    -1.42408520    -1.96659897    -1.00583084
O       3.79267978     4.77216731    10.31413102     1.42408520     1.96659897     1.00583084
O       4.99955425     0.82817633     5.31799010    -0.26424137     0.82980894     1.14728451
O       3.03448146     4.77218997     5.10340144     0.26424137    -0.82980894    -1.14728451
O       1.62649054     3.40646027     2.81507785     0.52908540     1.78875441     1.67849853
O       6.40754522     2.19390596     7.60631375    -0.52908540    -1.78875441    -1.67849853
O       3.97150162     2.19385384     2.39565110     1.25405269     1.17986245     0.39965782
O       4.06253414     3.40651239     8.02574033    -1.25405269    -1.17986245    -0.39965782
O       0.45973197     0.60627705     2.39561778     0.52908540     1.78875441    -1.67849853
O       7.57430384     4.99408917     8.02577359    -0.52908540    -1.78875441     1.67849853
O       2.89577558     0.60632922     7.60634695    -1.25405269    -1.17986245     0.39965782
O       5.13826017     4.99403701     2.81504459     1.25405269     1.17986245    -0.39965782
