# total energy = -4985.09413196 eV

CRYSTAL
PRIMVEC
        3.07139280     0.00000000     0.00000000
        2.06123549     4.34863413     0.00000000
       -0.00001347    -0.00006467     4.94539697
PRIMCOORD
6 1
Ti      2.56630731     2.17428476     2.47269838     0.00000000     0.00000000     0.00000000
Ti      0.00000000     0.00000000     0.00000000     0.00000000     0.00000000     0.00000000
O       1.93739814     0.84747220     0.96378500    -2.99517560     1.61203291     1.67325168
O       3.19521642     3.50109733     3.98161175     2.99517560    -1.61203291    -1.67325168
O       0.62890353     1.32678646     3.43648440     2.99478351    -1.61210953     1.67292720
O       1.43231836     3.02178292     1.50891235    -2.99478351     1.61210953    -1.67292720
