# total energy = -39036.00306049 eV

CRYSTAL
PRIMVEC
        7.60600008     0.00000000     0.00000000
        0.00000000     7.60600008     0.00000000
       -3.79573973    -3.79573973     9.71340985
PRIMCOORD
46 1
Ti      1.98746545     4.88352744     6.06526364     0.76953995     0.34000358     0.59172521
Ti      3.79227002     6.80859500     1.23370098    -0.28136492     0.45952855    -0.50789771
Ti      1.80400943     0.81948447     6.06240063     1.51197300     0.38446774     1.24910691
Ti      3.67495799     2.92243899     1.28432001     0.98527229    -1.12124154     0.00063429
Ti     -1.84209956     4.62964047     6.10213163    -0.68433176     0.53666682     0.13853135
Ti     -0.10527299     6.65255000     1.18787899     0.09701136    -0.11501269     0.35534202
Ti     -1.87786755     0.80112647     6.05095860    -1.43820956     0.36542074     0.04628887
Ti     -0.09086598     2.91196700     1.17030301    -0.75447353     0.04672442    -1.52162570
Ti      3.90086243     0.95513842     8.45095661    -0.81274529     0.20186638    -0.59595082
Ti      5.65585100     2.81186502     3.61804100    -0.62037966     0.13444303     0.01050810
Ti      3.85503743    -2.82333753     8.56336963    -0.29114515    -0.08466646    -0.56133116
Ti      5.66638401    -0.98737199     3.73629201     0.79252047    -0.42752165    -0.75861147
Ti      0.02535447     0.93789947     8.40229860     0.76265993     0.57297981     1.79370893
Ti      1.72058300     2.74531701     3.53272901     1.03674580     0.01138279     0.79316299
Ti      0.09054942    -2.76254655     8.52218963     0.16227035    -0.08863547     0.05507639
Ti      1.95811500    -0.98407500     3.53778201    -0.92279189     0.53949221     0.53540595
O       2.13688743    -0.90160056     5.69131164    -0.19899934    -2.29080980    -1.43110329
O       3.91274003     0.96369702     0.97319199    -0.14333108     0.84813474    -1.44118433
O      -1.77466454     2.78900446     5.67805760     0.23846296     0.19643570    -0.30809232
O       0.19203102     4.75965498     0.82892298    -0.28688920     0.12141345     0.08079540
O      -1.99946555    -1.00672257     5.70869263     0.08649066    -1.20217089    -0.78072888
O      -0.19771798     0.93628601     0.74278700     0.11841940     0.31296996     0.12790883
O       3.81889647     2.81463643     8.91314864     0.10933209     0.97620118    -0.05444107
O       5.72137701     4.69517500     4.02347100    -0.28993827    -0.40353016     0.61768977
O       3.74222144    -0.84088456     8.90047464     0.25410325    -1.02951277     0.25738192
O       5.86061000     0.81739602     4.14361202    -0.08081777     2.18750669    -0.88530185
O       0.00061146     2.94883446     8.93435463    -0.12571439    -0.97873912    -0.21303629
O       2.08759801     4.54293600     4.15375502    -0.87724633     0.64007920    -0.79222326
O       0.02731243    -0.89349753     9.11487562    -0.08533597     0.88188203    -1.30309804
O       1.74344002     0.88894200     4.17429202    -0.19973057     1.58856336    -1.52825760
O       1.96818445     1.05990742     7.99355262    -1.57288528     0.32845701     0.84213456
O       3.78271297     2.72207100     3.16775001     0.12642453     0.22685006     1.31879772
O       2.03885845    -2.57586657     7.99640462    -1.74906119    -0.86487494     1.06795360
O       3.86471798    -0.65721502     3.28413900    -2.02605652    -1.02125412    -0.30479385
O      -1.88091053     0.82358644     7.94276161     0.28700824     0.77901575     1.94876296
O      -0.12730698     2.95343798     3.03652802     0.77364806    -0.27386193     2.31881529
O      -1.96363453    -2.60340057     8.05409060     2.00634258    -0.66235653     0.37829658
O      -0.04286600    -0.85227600     3.19683798     0.56353460    -1.05150316    -0.06336178
O       3.86723443     4.66834746     6.49452762    -0.24634700    -0.76108050    -0.64492162
O       5.56888903     6.48513700     1.59484101     1.34443985    -0.56515594     0.17611832
O       3.80152946     0.88370743     6.47700661     0.45757811     0.78269860    -0.54616422
O       5.64501800     2.87720698     1.49413900    -0.40918196     0.64235128     0.82534859
O       0.09112744     4.98645347     6.53162861    -0.57052775    -1.02795365     0.15496404
O       1.79771799     6.88834498     1.51884602     1.28140178    -0.97099290     1.56567051
O      -0.00239357     0.51159243     6.62217263     0.63372728     0.39892917    -2.10724274
O       1.81586999     2.59045599     1.66775100     0.26859759     0.43640893    -0.90076164
