# total energy = -39037.10150223 eV

CRYSTAL
PRIMVEC
        7.60600008     0.00000000     0.00000000
        0.00000000     7.60600008     0.00000000
       -3.79573973    -3.79573973     9.71340985
PRIMCOORD
46 1
Ti      2.00493645     4.68827045     6.18077663    -0.52150553     0.63715045    -0.00372090
Ti      3.73694703     6.75855098     1.33247900    -1.23448350     1.42604130    -0.33241291
Ti      1.98617944     0.71072347     6.07219660     0.65616865     0.86436561     0.68599140
Ti      3.78804200     2.91990000     1.17375398     0.53197815    -1.51627317    -0.52771423
Ti     -1.89349055     4.71306844     6.08327064     0.53498609    -0.02626614    -0.87858921
Ti     -0.14253998     6.65084600     1.31592899     1.02047842     0.74700936    -1.45551824
Ti     -1.77332758     0.96243345     5.96747660    -0.85430359    -0.11300671     0.45200422
Ti      0.04530900     2.99166098     1.14978601    -0.70528240    -0.94035793    -0.00212090
Ti      3.91140645     0.94969245     8.42521663     0.05257214     0.55891587    -0.23109598
Ti      5.66205899     2.80530100     3.50996999    -0.58137009    -0.82845988     0.11885854
Ti      3.81075445    -2.83343757     8.52572565    -0.71221178    -0.06422824     0.51606250
Ti      5.62902102    -1.06052598     3.63643198    -0.94983528     0.31827646     1.36598185
Ti      0.12126748     1.09920645     8.34090663    -0.47042104    -1.12720650     2.41344864
Ti      1.85106800     2.73248298     3.52991500     0.60187310     0.42254116     0.84678748
Ti     -0.07574754    -2.88082857     8.46578564     1.50781192     1.08797428     0.91973254
Ti      1.76107897    -1.03039198     3.69002202     1.08118142    -0.27951090     0.03878588
O       1.82930744    -1.06196857     5.64819661    -0.33135850     0.13686090     0.52620243
O       3.63477100     1.00044901     1.05258001    -0.16201941    -0.10116678    -1.54045106
O      -1.99887255     2.83392743     5.50633763     0.49761689     0.04078491     0.77963487
O      -0.18425999     4.82561402     0.86852402     0.37556323     0.65226932    -0.53786264
O      -1.70639655    -1.00584355     5.67177860    -0.13572961    -0.26930953    -0.34681983
O      -0.00501999     1.01965402     0.69758003     0.28427078    -0.84507924     1.07484262
O       3.64868645     2.89949143     8.88718964     0.50356000    -0.58104202     0.04793721
O       5.55442899     4.59592198     3.96185598     0.27991353     1.86064043    -0.08585302
O       4.00270143    -0.89217353     8.93173361     0.17366908     0.81594452    -0.26195206
O       5.62763098     0.85231399     4.10088598     0.26494971     0.23847376    -0.58388129
O       0.09968747     2.89667944     9.04987661     0.10308276    -0.40286270    -0.27287411
O       1.96956301     4.59094798     4.28976601    -0.25690807    -0.98617501    -1.46882422
O      -0.04851555    -0.83834758     9.01345763    -0.15236517     0.32147620    -0.31948000
O       1.96826801     0.86150300     4.14660002    -0.52388432     0.91046422    -0.28673544
O       1.98279244     0.76474542     8.12672764     0.49187279     0.37202257    -0.61864982
O       3.75058398     2.62175100     3.07584398     0.83668510     0.50254133     1.34975073
O       1.87213947    -2.56657555     8.10650360     0.79391890    -0.91081775     0.33471353
O       3.73766300    -0.90964601     3.21249501    -0.28371697    -0.90598433     1.39468077
O      -1.75960754     1.01803447     8.05276464    -1.62720217     0.15818281     0.11955377
O      -0.08151801     2.62951499     3.15227401     1.00792809     0.24431171    -0.05913899
O      -1.86727956    -2.80773755     8.01633164    -0.66930494    -0.44584257     0.75475044
O      -0.08137503    -0.97713902     3.30060498    -0.11388886    -0.19076847    -0.22483174
O       3.87514844     4.95268942     6.49086063    -0.84436473    -0.84893590    -0.01772673
O       5.57265597     6.77162700     1.73352397     1.52146243    -0.43022157    -0.88014319
O       3.88511248     0.99200446     6.40679961    -0.65112903    -0.19678434     0.78811849
O       5.73959399     2.88495102     1.36304899    -1.07924024     0.52043955     1.34697625
O       0.03791846     4.66750644     6.54653262    -0.09607882    -0.68865327    -0.24364657
O       1.79532902     6.58900899     1.75737399    -0.23098748    -0.27762474    -0.95428406
O       0.09645044     1.26167445     6.56935762     0.87955672    -0.07628826    -3.03838326
O       1.92783601     3.23938103     1.67845599    -0.81350891     0.21617869    -0.70210323
