# total energy = -4984.84501544 eV

CRYSTAL
PRIMVEC
        3.49415388     0.00000000     0.00000000
        1.18660695     3.28649893     0.00000000
       -2.34041229    -1.64327185     4.53133691
PRIMCOORD
6 1
Ti      0.88985448     2.46500026     1.13283428     0.00106984    -0.00127784    -0.00227157
Ti      1.45049345    -0.82177360     3.39850273    -0.00106984     0.00127784     0.00227157
O       0.29668814     0.82162021     0.73811780     0.00064226     0.00141128    -0.40434109
O       2.04365963     0.82160633     3.79321930    -0.00064226    -0.00141128     0.40434109
O      -0.29665980    -0.82160035     3.00378626     0.00136988     0.00061732    -0.40741664
O       2.63700751     2.46482686     1.52755085    -0.00136988    -0.00061732     0.40741664
