# total energy = -4978.19290272 eV

CRYSTAL
PRIMVEC
        4.27221050     0.00000000     0.00000000
        0.00000000     2.23130458     0.00000000
        0.00000000    -0.00011769     5.95014469
PRIMCOORD
6 1
Ti      2.13610505     1.11559339     2.97507235     0.00000000     0.00000000     0.00000000
Ti      0.00000000     0.00000000     0.00000000     0.00000000     0.00000000     0.00000000
O       2.13610505     0.43482546     1.15959558     0.00000000    -0.66012764     0.39165886
O       2.13610505     1.79636138     4.79054916     0.00000000     0.66012764    -0.39165886
O       0.00000000     0.68072171     4.13466913     0.00000000     0.65994560     0.39117009
O       0.00000000     1.55046513     1.81547556     0.00000000    -0.65994560    -0.39117009
