# total energy = -39021.76530769 eV

CRYSTAL
PRIMVEC
        7.60600008     0.00000000     0.00000000
        0.00000000     7.60600008     0.00000000
       -3.79573973    -3.79573973     9.71340985
PRIMCOORD
46 1
Ti      1.72455045     3.90802844     6.56121062    -0.87523058     0.28110164    -1.63475993
Ti      3.86976501     0.09932498     1.44846497     0.84478562    -0.52605741    -1.89196470
Ti      2.15851945     0.62462447     6.00734265    -2.27842891     1.09477099    -1.06743707
Ti      4.13509703     3.36927600     1.44959202    -0.66300573    -2.05743736    -1.25998526
Ti     -1.87408753     4.00984543     6.42241261     1.10195980    -1.55065012     1.48783136
Ti      0.04772099    -0.37396798     1.47338499    -0.79058983     3.84445448     0.16402693
Ti     -2.18561354     0.72183645     6.48256165     2.77953324    -1.25604092    -3.63235459
Ti     -0.02150598     3.93280600     1.06234503     4.46865351    -2.01221113    -1.43176535
Ti      3.67010046     2.54527944     8.29447360     0.69009437    -2.61929895    -0.83485113
Ti      5.73035101     1.71923698     3.39605501     2.20054039    -0.44555897     1.04783368
Ti      3.63652347    -2.16016953     8.61589364     2.00911886     1.72609481     0.93697565
Ti      5.60837099     5.73983698     3.45070902    -0.73806937     1.31947469     1.72741353
Ti     -0.09753456     1.77450642     8.26033061     4.66974934    -1.07453974     0.95165768
Ti      1.90842102     1.34786700     3.20704300    -3.59683505     0.30702943     0.91045753
Ti     -0.00969754    -1.50143657     7.96020964    -1.84012430    -0.64677641     2.76558783
Ti      1.83112802     5.66695002     3.31947999    -0.31613833    -0.02937101     1.22780660
O       1.48256743     4.95195847     5.02661062     1.13235950    -0.56134530    -0.29778734
O       3.48603202     1.67177402     0.48558299     1.07910731     0.96910288    -0.43595153
O      -1.51830753     2.16413445     5.38916064    -0.56254138     3.23488504    -0.40382558
O       0.36388699     5.63429401     0.47421298    -0.52739310     0.76133658    -1.96192136
O      -1.92672156     5.41166845     5.45410662    -0.03931810     1.44987801    -3.33027094
O       0.64407798     1.62052802     1.14539500    -0.69466528     0.84908965    -2.78918439
O       3.16646448     3.82898746     9.38563064     0.01200706     0.46065315     0.80309080
O       5.15073401     3.94544498     3.09026798    -0.27404782     0.41226626     0.48116542
O      -3.32267353    -0.45584953     8.98654865    -0.94482471     0.59565026    -0.83274180
O       5.86451998     0.30875498     4.36930998    -2.45991826    -4.00619724     1.48700835
O       0.06820745     2.94191547     9.46361263    -0.42112114     0.31462987     2.56672758
O       1.63135847     2.17744945     5.07002961     0.95832867    -0.81749901    -0.44457553
O      -0.05280755     0.11429546     9.38103764     0.22488651     0.95702666    -1.30754143
O       2.20981202    -0.31965301     4.42863800    -0.21380119     2.24635130     1.09564285
O       1.90644645     2.17954943     7.62879265    -0.62461092    -0.79038466     0.59263179
O       3.79409399     1.55933602     2.75083702     0.64632647     1.70790759     1.76458012
O       1.54060743    -2.40117156     8.04317860     3.33212985     1.12295518     0.31059066
O       3.85529498    -1.15857400     3.01165700     1.13699803    -2.41204867    -0.63772587
O      -1.69759654     2.08324843     7.67312463    -4.20561799     0.55165147     1.06894631
O      -0.03903201     1.16239599     3.11492700     0.82782276     1.14153449     0.85423880
O      -1.75626357    -2.33206356     7.96807364    -0.67930370     0.75221945    -0.12837009
O      -0.08884600     6.01366801     2.96807502    -1.29316947    -0.58473387     0.69423488
O       3.82284848     4.13372545     7.10600161    -0.30480851    -0.27211332    -1.12330922
O       5.77455302     0.03641099     1.59407698    -1.72546720    -0.24113049     1.73295863
O       3.83274843     1.41000945     6.41487364    -1.14215181    -0.39677664     0.65637254
O       6.03951101     3.22901402     0.98168000    -3.49766756    -0.95932445     0.19351904
O      -0.03200956     3.85928545     7.08233760    -0.62915483    -0.51511634    -1.67819437
O       1.84659201    -0.14736602     1.97824501     2.01255977    -2.13318775     0.17023023
O       0.59140643    -0.23882156     6.69936361    -0.62525344     0.85195720     0.67415610
O       1.50211497     4.20105802     2.21497198     1.83629747    -1.04422257     0.75883258
