# total energy = -19002.22081303 eV

CRYSTAL
PRIMVEC
        7.60600008     0.00000000     0.00000000
        0.00000000     7.60600008     0.00000000
       -1.89786986    -1.89786986     4.85670466
PRIMCOORD
22 1
Ti      4.30124900     6.26295600     1.30827401     3.27991278     0.94652473    -4.07114796
Ti      4.93091225     3.11880423     3.19895681   -13.56546953     7.66422174    -8.15726746
Ti      0.75316898     6.11517701     0.24105098    -9.54646278     8.83283175     7.80348071
Ti     -0.04089201     2.72789100     0.33090798   -13.59984442     5.38805155    12.88109458
Ti     -1.13246980     2.50827222     4.38482683   -15.94151631    23.98700117    30.77161220
Ti     -1.08197576     1.54803121     3.24519081    -7.69794846   -30.48657342   -49.34883444
Ti      0.30473725     2.11355124     3.80224184    50.62660634     7.37868597     1.64663149
Ti      0.49596423    -0.74559778     4.05418080     8.55042708    -3.28091371    -0.19845658
O       4.40570398     4.53158499     1.98799002    -1.24043715     2.28718994     0.05104747
O       3.98778800     0.43444299     0.64771301    -1.00394905    -1.30439002     0.11604241
O       0.98880701     4.45868902     1.15814500     1.58552097    -1.86791717     6.09661365
O       0.80088802     1.39974400     0.13140598     4.84596716   -13.01924386     6.85700175
O      -1.12864675     4.09123723     3.18556280    -4.06313949     2.91399916     0.58482386
O       4.99368420     1.24581522     3.37999580   -15.75890827    -1.33154320     0.06548422
O       0.26565222     4.77292024     4.80162080    10.07979617     4.47806993    -1.09391147
O       1.06892725     0.87364423     4.83886181     0.54621461    -4.58551585    -0.48508379
O       2.60486422     2.93437522     3.57859481     0.42208556     0.06390942     0.87371826
O       0.07223799     3.02356497     2.30100598     4.60584017    -2.58154357    -4.23888859
O       6.21323202     6.54358198     0.58261600    -1.75532466    -1.33376874    -0.18691824
O       5.82885502     2.56432601     1.33744798    -0.04117546    -1.22439809    -0.22496441
O       0.60363498     6.31070102     2.03181098     0.22266096     3.45310930     6.09915338
O      -1.27381780    -0.16242080     3.72672983    -0.55085649    -6.37778677    -5.84123050
