# total energy = -39040.38022321 eV

CRYSTAL
PRIMVEC
        7.60629642    -0.00000847    -0.00005503
       -0.00000847     7.60629642    -0.00005503
       -3.80314186    -3.80314186     9.70738094
PRIMCOORD
46 1
Ti      1.92234416     4.75396559     6.20372743    -0.01190755    -0.00035070    -0.02745605
Ti      3.80250493     6.62352801     1.17946055     0.01497488     0.02027033     0.00355687
Ti      1.81975444     0.95079882     5.94932853    -0.02070484    -0.00026225    -0.00945266
Ti      3.80256857     2.88451121     1.17943479     0.01499237    -0.02045493     0.00359620
Ti     -1.91605685     4.75405317     6.09231552     0.01413824     0.00006685    -0.01372892
Ti     -0.00282046     6.67099883     1.24878948    -0.01296248     0.00251942     0.01164684
Ti     -1.82229119     0.95088390     6.02040850    -0.00700394     0.00007482    -0.01565777
Ti     -0.00280252     2.83693199     1.24882557    -0.01296196    -0.00239396     0.01171678
Ti      3.79916634     0.95081181     8.63471128     0.03941965    -0.00002134     0.00103898
Ti      5.68260312     2.87473160     3.63383677    -0.01155480    -0.00948146     0.04427621
Ti      3.82770622    -2.85234897     8.54982532    -0.01146198    -0.00002005    -0.03575480
Ti      5.68259729    -0.97341754     3.63388148    -0.01158899     0.00970335     0.04405793
Ti      0.03244453     0.95069020     8.39578124    -0.01351578     0.00011596    -0.01655585
Ti      1.91589130     2.79585301     3.59754409    -0.00215021     0.04039847     0.02078635
Ti     -0.02006455    -2.85252545     8.52187830     0.00804833     0.00025942    -0.03511434
Ti      1.91584642    -0.89449864     3.59758562    -0.00208619    -0.04075123     0.02076835
O       2.00301351     2.91211496     5.60065975    -0.00936293    -0.00458222     0.01281593
O       3.84342341     4.75395577     0.72454306     0.01702097     0.00004859     0.00719781
O       2.00300175    -1.01054261     5.60073550    -0.00928709     0.00430660     0.01306327
O       3.77712993     0.95077517     0.78867650    -0.01959361     0.00008048    -0.02426120
O      -2.04016149     2.82649508     5.66963961     0.00173087     0.00252457     0.00673886
O      -0.04106135     4.75394153     0.84246675    -0.01485070     0.00004988     0.01181834
O      -2.04014615    -0.92490369     5.66967557     0.00173755    -0.00219469     0.00663242
O       0.02362364     0.95080153     0.87665034     0.01584212     0.00004165    -0.02203308
O       3.79798479     2.86658840     8.96728746    -0.00627786     0.00936833     0.02271699
O       5.73791426     4.75390937     4.11355285     0.01855617    -0.00005836     0.00007482
O       3.79796554    -0.96498038     8.96731628    -0.00622953    -0.00923206     0.02271570
O       5.65276772     0.95077619     4.01735176    -0.01617687     0.00007996     0.00925855
O       0.01087305     2.82931929     8.86710451     0.00854995     0.00507382    -0.00694584
O       0.01093427    -0.92771892     8.86711353     0.00850830    -0.00497663    -0.00688773
O       1.96392793     0.95071420     3.99440364     0.03475079    -0.00010644    -0.02953787
O       2.02366175     0.95088765     7.95177792     0.02026930     0.00002083     0.03127131
O       3.78160899     3.02297055     3.21627210     0.01692378    -0.00755262    -0.02267277
O       1.90065870    -2.85237094     8.13079564    -0.00385717     0.00004525     0.02087942
O       3.78158911    -1.12136144     3.21630203     0.01708576     0.00730913    -0.02271879
O      -2.00667892     0.95088853     7.99514912    -0.00190185     0.00001363    -0.01517209
O       0.02011578     2.93710047     3.27561356    -0.01900689    -0.02726116    -0.02022713
O      -1.90158235    -2.85230236     8.11247963     0.00981056     0.00003497    -0.00805347
O       0.02011352    -1.03557737     3.27565091    -0.01916141     0.02710689    -0.02033049
O       3.81154081     4.75397074     6.55492448     0.01052044     0.00000309    -0.01285989
O       5.69583085     6.67768668     1.65981671    -0.00560963    -0.00127912     0.02621472
O       5.69583893     2.83010062     1.65981400    -0.00563123     0.00146579     0.02625612
O      -0.01259035     4.75391779     6.48554416    -0.02176028     0.00006479     0.02094396
O       1.90504734     6.60089635     1.61633436     0.00837691    -0.02241360    -0.02127743
O       0.01001754     0.95075288     6.40029897    -0.01305272     0.00010696     0.00801156
O       1.90507443     2.90705507     1.61637778     0.00840263     0.02223954    -0.02135610
