# total energy = -19518.16314825 eV

CRYSTAL
PRIMVEC
        5.93400000     0.00000000     0.00000000
        0.00000000     9.29699974     0.00000000
        0.00000000     0.00000000     4.64899994
PRIMCOORD
23 1
Ti      4.45062198     6.98096798     2.19897802    -0.07367345     0.77396739    -0.33180484
Ti      4.49697700     2.31405100     2.33809702     0.67720286     0.36843176    -0.06538061
Ti      1.41421800     7.01247499     2.32634500     0.05883586     0.56739100    -0.40474450
Ti      1.49960599     2.31227598     2.37958902    -0.61408456     0.19103535    -0.60395570
Ti      2.94561701     4.52409401     0.11661299     0.08616824    -0.30899169     0.53041672
Ti      2.93608002     0.11793302     4.63186900     0.30447349    -1.01264195     0.24584435
Ti      0.00020299     4.62746598     4.64465498    -0.28629193     0.00687128     0.14202882
Ti      5.89567201     9.28787699     4.61161701    -0.05006454    -0.12636128    -0.28770758
O       4.36108000     5.51809500     0.96286103     0.06667721     0.53955725    -0.36393902
O       4.50738201     0.91998301     0.90225801    -0.12625921     0.08888256     0.27772295
O       1.50758302     5.52789202     0.91714900     0.31600618     0.50005584    -0.12216678
O       1.48423302     0.94747800     0.83580398     0.24413379     0.37708533     0.78377178
O       4.49715502     8.50432001     3.63246098    -0.12849324    -0.72380258     0.11716624
O       4.51499702     3.56563600     3.93011302    -0.73446469     0.90685182    -1.09369833
O       1.59772799     8.39797501     3.70510601    -0.72113043    -0.48868153    -0.31297073
O       1.40925199     3.68793098     3.82553299     1.12941199     0.30641596    -0.73776033
O       3.00026398     1.46194502     3.22545001    -0.13095327    -0.24250268     0.05456551
O       5.89013502     6.05161002     3.12918600     0.12223723    -0.38038020     0.98125931
O       0.04633100     1.48141901     3.26077799     0.14277470    -0.61527473    -0.30079810
O       2.93161799     7.86374999     1.33435499     0.33701544    -0.45959077     0.78024294
O       3.04117901     3.27051797     1.46775301    -0.57782968    -0.33551366     0.41176901
O       0.00333800     7.84090001     1.37136300     0.11569094     0.64562815    -0.56443140
O       0.05605199     3.30431700     1.42739202    -0.15738294    -0.57843158     0.86457104
