# total energy = -4982.98435569 eV

CRYSTAL
PRIMVEC
        4.31221273     0.00000000     0.00000000
        2.02926911     3.80489757     0.00000000
       -3.17078144    -1.90247310     5.69496461
PRIMCOORD
6 1
Ti      1.52185009     2.85381971     1.42374077    -0.00002982     0.00002982     0.00000000
Ti      1.64885016    -0.95139538     4.27122313     0.00002982    -0.00002982     0.00000000
O       0.50736196     0.95121955     0.92766308    -0.00055202    -0.00079319    -2.02968307
O       2.66333810     0.95120477     4.76730089     0.00055202     0.00079319     2.02968307
O      -0.50732098    -0.95119491     3.77514538    -0.00079319    -0.00055202    -2.02968307
O       3.67802096     2.85361913     1.91981853     0.00079319     0.00055202     2.02968307
