# total energy = -19958.51249123 eV

CRYSTAL
PRIMVEC
        7.60600008     0.00000000     0.00000000
        0.00000000     7.60600008     0.00000000
       -1.89786986    -1.89786986     4.85670466
PRIMCOORD
24 1
Ti      3.90306598     6.63560998     1.06903499    -0.95583649    -0.15910995     0.32330991
Ti      3.88052001     2.63989602     1.21351599    -1.95265536     0.02333817     0.04807219
Ti     -0.02121001     6.73583498     1.22454399     0.52912551     1.00507545     0.35436191
Ti     -0.12433300     2.89222498     1.34560900     0.51114244    -1.17571680    -1.26818476
Ti      5.60015224     2.92649423     3.78644182    -0.95891153    -0.74442900    -0.36995103
Ti      5.64976525    -0.84422277     3.67628183     0.51797721     0.98886850    -0.21477307
Ti      1.84805524     2.78673424     3.68967679     0.68502750    -0.53361055    -0.24994192
Ti      2.03361923    -0.97070079     3.54214884    -0.48087849     0.03403936    -0.03716197
O       3.81281998     4.74898598     0.81042602    -0.00178460    -0.57336470    -0.35516487
O       4.27803701     0.81966698     0.62665599    -1.38084926     0.11418453     0.01465786
O       7.24526101     4.82257802     0.73810601     1.32230599     0.13041309     1.81598549
O      -0.28807801     1.11616198     0.74073602     1.25494101    -1.50250491     0.31178545
O       5.69916522     4.92094223     4.08157879     0.08846758    -1.11092189     0.09514576
O       5.41682222     1.04359823     4.08676081     1.46782508    -0.17774017     0.25157277
O       2.01734422     4.69284524     3.83411381    -0.44542836    -0.33243965     0.41259742
O       2.06271525     0.80402620     4.20251982    -0.90343354     1.95357196    -1.31407383
O       3.77211324     2.84455124     3.21238881     0.90251642     0.35476635    -0.27077506
O       3.86708722    -0.75775378     3.06705482     0.47728563    -0.84754185    -0.50477227
O      -0.14144379     2.68391520     3.55214981     0.79392970     0.88049492    -2.27963578
O       0.15527722    -0.88138678     3.37253779    -1.41573426     0.05303211    -1.90183569
O       5.77306000     6.77865199     1.52691301     0.94142031    -0.79235541     1.46738620
O       5.65623402     2.71390701     1.30909498     1.66002052     1.50302967     2.88764868
O       2.01198001     6.85939501     1.40331901    -1.14185922    -0.58804134     0.78624801
O       1.91058398     2.33644901     1.74399401    -1.51461327     1.49696238    -0.00250194
