# total energy = -19905.33160280 eV

CRYSTAL
PRIMVEC
        6.65915187     0.00000000     0.00000000
        0.70700408     7.05199927     0.00000000
        0.00000000     0.00000000    11.93337801
PRIMCOORD
24 1
Ti      2.83259230     4.17900828     4.42719824    -0.12299108    -1.31872341     0.64350468
Ti      4.53356386     2.87299105     7.50618019     0.12299108     1.31872341    -0.64350468
Ti      6.03112288     2.87299345     1.53944331     0.21656204     0.42295743    -0.53780093
Ti      1.33503330     4.17900622    10.39393532    -0.21656204    -0.42295743     0.53780093
Ti      2.47909040     0.65300870     1.53949118    -0.12299108    -1.31872341    -0.64350468
Ti      4.88706577     6.39899090    10.39388745     0.12299108     1.31872341     0.64350468
Ti      0.98153130     0.65300611     7.50613238    -0.21656204    -0.42295743    -0.53780093
Ti      6.38462480     6.39899343     4.42724611     0.21656204     0.42295743     0.53780093
O       2.35661185     2.48312884     6.08951161     1.58583079     1.61925746    -0.27392800
O       5.00954431     4.56887056     5.84386681    -1.58583079    -1.61925746     0.27392800
O       1.47090231     2.48315736     0.12286082    -1.18103436     0.90870404     0.31390610
O       5.89525393     4.56884210    11.81051733     1.18103436    -0.90870404    -0.31390610
O       4.65604240     1.04287071     0.12282213    -1.58583079    -1.61925746    -0.27392800
O       2.71011376     6.00912869    11.81055602     1.58583079     1.61925746     0.27392800
O       5.54175201     1.04284225     6.08955037     1.18103436    -0.90870404     0.31390610
O       1.82440408     6.00915715     5.84382812    -1.18103436     0.90870404    -0.31390610
O       0.67198233     4.28942587     3.22350319     0.48734122     0.43334520     0.86694391
O       6.69417377     2.76257353     8.70987523    -0.48734122    -0.43334520    -0.86694391
O       3.84848920     2.76250785     2.74322396     0.51711332     0.91625460     0.18459448
O       3.51766696     4.28949148     9.19015432    -0.51711332    -0.91625460    -0.18459448
O       0.31848041     0.76342603     2.74318581     0.48734122     0.43334520    -0.86694391
O       7.04767568     6.28857331     9.19019240    -0.48734122    -0.43334520     0.86694391
O       3.16416505     0.76349170     8.70991331    -0.51711332    -0.91625460     0.18459448
O       4.20199112     6.28850770     3.22346511     0.51711332     0.91625460    -0.18459448
