# total energy = -4980.35142835 eV

CRYSTAL
PRIMVEC
        3.61951146     0.00000000     0.00000000
        0.00000000     5.67123182     0.00000000
        0.00000000    -0.00007360     5.67123182
PRIMCOORD
6 1
Ti      1.80975567     2.83557905     2.83561585     0.00000000     0.00000000     0.00000000
Ti      0.00000000     0.00000000     0.00000000     0.00000000     0.00000000     0.00000000
O       1.80975567     1.10522519     1.10523954    -0.00000000    -0.95997931    -0.95997931
O       1.80975567     4.56593290     4.56599216     0.00000000     0.95997931     0.95997931
O       0.00000000     1.73032402     3.94085653     0.00000000     0.95977825    -0.95977825
O       0.00000000     3.94083408     1.73037516     0.00000000    -0.95977825     0.95977825
