# total energy = -19885.52660721 eV

CRYSTAL
PRIMVEC
        9.08344565     0.00000000     0.00000000
        0.00002824     3.22251101     0.00000000
        0.00000000     0.00000000    14.45099589
PRIMCOORD
24 1
Ti      3.29232868     1.90965693     5.36121653     0.15190263     0.13252602     2.02279431
Ti      5.79114483     1.31285377     9.08977979    -0.15190263    -0.13252602    -2.02279431
Ti      7.83389656     1.31285481     1.86422390     0.15177176    -0.13249362    -2.02238242
Ti      1.24957701     1.90965602    12.58677255    -0.15177176     0.13249362     2.02238242
Ti      3.29231493     0.29840149     1.86428185     0.15180184     0.13198892    -2.02228394
Ti      5.79115864     2.92410934    12.58671460    -0.15180184    -0.13198892     2.02228394
Ti      1.24956320     0.29840039     9.08972184    -0.15115804     0.13199560    -2.02264518
Ti      7.83391037     2.92411044     5.36127448     0.15115804    -0.13199560     2.02264518
O       2.87497770     1.13470081     7.37423276     1.45726479     0.43133408    -1.76002875
O       6.20849588     2.08780996     7.07676356    -1.45726479    -0.43133408     1.76002875
O       1.66681784     1.13471389     0.14878113    -1.45627414     0.43136314    -1.75973205
O       7.41665580     2.08779687    14.30221476     1.45627414    -0.43136314     1.75973205
O       6.20848207     0.47655439     0.14873420    -1.45655516    -0.43063860    -1.75976547
O       2.87499151     2.74595632    14.30226169     1.45655516     0.43063860     1.75976547
O       7.41664199     0.47654137     7.37427963     1.45601215    -0.43073810    -1.76008223
O       1.66683146     2.74596940     7.07671669    -1.45601215     0.43073810     1.76008223
O       0.33003954     1.96011387     3.90357458    -1.36073551     0.50290642     1.14803861
O       8.75343403     1.26239684    10.54742168     1.36073551    -0.50290642    -1.14803861
O       4.87177438     1.26236697     3.32196949    -1.35969396    -0.50282569    -1.14788434
O       4.21169920     1.96014380    11.12902658     1.35969396     0.50282569     1.14788434
O       0.33002573     0.34885836     3.32192336    -1.36082782     0.50352117    -1.14746037
O       8.75344784     2.87365240    11.12907271     1.36082782    -0.50352117     1.14746037
O       4.21168545     0.34888823    10.54746774     1.36096768     0.50335225    -1.14987644
O       4.87178813     2.87362247     3.90352845    -1.36096768    -0.50335225     1.14987644
