# total energy = -4981.61685922 eV

CRYSTAL
PRIMVEC
        3.56017521     0.00000000     0.00000000
        0.00000000     5.57826081     0.00000000
        0.00000000    -0.00007239     5.57826081
PRIMCOORD
6 1
Ti      1.78008754     2.78909414     2.78913034     0.00000000     0.00000000     0.00000000
Ti      0.00000000     0.00000000     0.00000000     0.00000000     0.00000000     0.00000000
O       1.78008754     1.08710675     1.08712086     0.00000000    -0.94542224    -0.94542224
O       1.78008754     4.49108154     4.49113982     0.00000000     0.94542224     0.94542224
O       0.00000000     1.70195805     3.87625233     0.00000000     0.94549500    -0.94549500
O       0.00000000     3.87623024     1.70200835     0.00000000    -0.94549500     0.94549500
