# total energy = -19518.87485633 eV

CRYSTAL
PRIMVEC
        7.60600008     0.00000000     0.00000000
        0.00000000     7.60600008     0.00000000
       -1.89786986    -1.89786986     4.85670466
PRIMCOORD
23 1
Ti      3.85255199     6.65375700     1.23484898     0.56580488     0.65300028    -0.11713230
Ti      3.76934998     2.94736001     1.21704200     0.52117180    -0.76049095     0.87322049
Ti      0.08861697     6.58650201     1.26497901    -0.71714290     0.64812290    -0.07598410
Ti      0.05235600     2.88798500     0.97751802    -0.82462611    -1.48506562     1.02433456
Ti      5.57193523     2.88585522     3.68617480    -0.76108127    -0.83322825    -2.01714816
Ti      5.61977122    -1.01580875     3.66201479     0.24260784     0.30291309    -0.38294462
Ti      1.90784925     2.87274623     3.68747382     0.20921871     0.01155814    -0.47642765
Ti      1.87078922    -0.94744879     3.63852180     0.37294354    -0.17780162     0.82135824
O       3.91275500     4.77665300     0.87552201    -0.27127745    -0.46034899    -0.08048327
O       4.08058500     0.89696899     0.69277801    -0.66339526     0.75126660     0.28448419
O       0.05576502     4.72794700     0.76401400     0.07916378     0.20986612     0.17707888
O      -0.13274798     0.91731098     0.70067502     0.51945456    -0.77437285     1.34212098
O       5.74309624     4.65316621     4.08934484     0.08059126     1.14534872    -0.29307219
O       5.72795225     0.87527621     3.92261379     0.55045951     1.46352337     0.42681511
O       1.77486023     4.70416122     4.04632680    -0.10495607     0.64429632    -0.11932906
O       1.68831022     1.06093223     4.15582379    -0.27759337    -1.24187286    -0.58635161
O       3.69574825     2.75676725     3.32205381     1.61934565     0.20578346    -0.85098147
O       3.78926821    -0.68707977     3.16735783    -0.65413054    -0.62267282     0.56364181
O       0.05974522    -0.97813578     3.20311884    -0.31932547     0.20714383     0.35783547
O       5.70360702     6.49790499     1.78359499     0.60002397    -0.15387081    -1.72176378
O       5.84554501     2.99134200     1.71194000    -0.06775271    -0.36458873     0.32086377
O       1.95868699     6.41327298     1.61242901    -0.55913827     0.88973315     0.04697819
O       1.85216202     2.88467198     1.58097699    -0.14036660    -0.25824247     0.48288652
