# total energy = -4979.93812656 eV

CRYSTAL
PRIMVEC
        2.74082845     0.00000000     0.00000000
        1.45839992     4.03924730     0.00000000
       -0.00000947    -0.00005690     4.36382315
PRIMCOORD
6 1
Ti      2.09960944     2.01959515     2.18191158     0.00000000     0.00000000     0.00000000
Ti      0.00000000     0.00000000     0.00000000     0.00000000     0.00000000     0.00000000
O       1.65463302     0.78717871     0.85044487    -8.45393894     3.63733019     4.66634725
O       2.54458587     3.25201159     3.51337833     8.45393894    -3.63733019    -4.66634725
O       0.44497244     1.23239344     3.03235732     8.45498024    -3.63968327     4.66896155
O       1.01341808     2.80679684     1.33146589    -8.45498024     3.63968327    -4.66896155
