# total energy = -39033.79182543 eV

CRYSTAL
PRIMVEC
        7.60600008     0.00000000     0.00000000
        0.00000000     7.60600008     0.00000000
       -3.79573973    -3.79573973     9.71340985
PRIMCOORD
46 1
Ti      1.89016547     5.17141145     5.93231664     0.03692645    -0.79259041     0.15070810
Ti      3.78649903     6.46361298     1.22761502     0.52504106     0.69639461     0.82854473
Ti      1.84269345     1.18370945     6.23702865    -0.64410426    -0.67836808    -0.29515632
Ti      3.77769902     2.53677498     1.27334900     0.65375027    -1.26528893     1.48091123
Ti     -1.89239457     4.77402045     5.92917560    -1.01804230     0.06750588     0.63917725
Ti      0.00089299     6.51799102     1.16371602    -0.63667146    -0.96494823     1.16001867
Ti     -1.93937953     1.03625447     6.09527561     0.76256120     0.46951832    -0.28656601
Ti      0.06315000     2.63545701     1.23207799    -0.11612803     0.98839181    -1.68288637
Ti      3.81380447     0.89911543     8.50464360    -0.90702537    -1.60788804     2.89951587
Ti      5.77008402     2.92196898     3.56238299    -1.06255711    -0.77504905    -0.11167334
Ti      3.79288646    -3.00175255     8.36652564     0.73284206     1.19975508    -0.14490666
Ti      5.75453499    -0.89730501     3.75954300     0.56794713     0.83089498    -1.66567206
Ti     -0.06999655     0.83296145     8.48541562     1.49478645    -1.13789895     1.14657257
Ti      1.90218700     3.16458902     3.64895702     0.96143045     0.03092241    -0.43132894
Ti      0.01546944    -3.06105956     8.31053662    -1.23224227     0.32561877     0.73192032
Ti      1.98220601    -0.55825199     3.60006200    -0.85228168    -1.12055197     0.68031466
O       1.89046144    -0.66338655     5.82406264     0.50925602     0.14631228    -1.69780161
O       3.79314703     0.67805899     1.05130099     0.44816042     0.54229008    -0.73234430
O      -1.71859752     2.97610846     5.78653661    -0.65341757    -2.56458611    -1.34943937
O      -0.12807100     4.58335699     0.86240302     1.04941209    -0.06405469    -0.76946153
O      -1.69399158    -0.81385254     5.70514460    -0.80571847    -0.66114168    -0.38831025
O       0.30734101     0.59693501     0.52490801    -0.35633549     3.70622344     1.65192180
O       3.47181044     2.83003745     8.87224065     0.03568564    -2.75662985    -0.53519563
O       5.73062300     4.73391099     3.88734502     0.26794710     1.14408374     1.34887938
O       3.99776045    -1.09981554     8.86957661    -0.69573486     0.15099657     0.55899352
O       5.47590502     1.05935999     4.10632402     0.50772699    -0.41926789     0.50441283
O      -0.01450454     2.69922245     8.87335261     0.27789882     0.41936251     0.61925942
O       1.64029501     5.07948902     4.00244901     0.72151429    -1.11845806     0.78940353
O      -0.26350254    -1.18525353     9.25075061     0.20876774     1.14503608    -3.12274093
O       1.92892802     1.35341601     4.30000501    -0.12738921    -0.77681746    -0.40905058
O       1.76676842     0.62741943     8.20353164     1.18072429     0.46898816     0.81690894
O       3.80074601     2.93579400     3.41989201     0.22007751     0.84274905    -1.13650541
O       1.78995745    -2.80174657     7.94783160     1.03046408    -0.10169051    -0.12563546
O       3.79918600    -1.06960301     3.27277899    -0.04931686     0.62562574     0.09577209
O      -1.87320555     0.89333946     8.07542063    -1.97183708     0.19170049    -0.01867676
O       0.04996201     2.95225601     3.20697702    -1.03366767    -0.55311906    -0.19255410
O      -1.97510953     4.47364447     7.95444362     0.26874260     0.44284234    -0.55011935
O       0.03814998    -0.66785302     3.32659499     0.16177541     0.47150090    -0.42769520
O       3.78584745     4.88649946     6.08777563    -0.71282268    -0.32149754     1.24797357
O       5.83873698     6.42889101     1.77175301    -1.48793575     0.40808924    -0.47285587
O       3.63307546     1.10918346     6.75978364     2.37542047     0.63576566    -3.08475672
O       5.72436400     2.61410101     1.49281500     0.32689378     0.08368121     1.46281529
O      -0.06111553     4.72985844     6.29981060     1.89356599     0.43358071     1.38220783
O       1.93037902     6.51817898     1.59551698     0.14770222    -0.46937460     0.70907992
O       0.07610347     0.85950244     6.59865663    -2.48340812     1.28670494    -1.40243754
O       1.93189803     2.67486802     1.69836703    -0.52038453     0.39468531     0.12845828
