# total energy = -19927.31456302 eV

CRYSTAL
PRIMVEC
        4.71029389     0.00000000     0.00000000
        1.47088232     4.79254098     0.00000000
        0.00000000     0.00000000     8.52901607
PRIMCOORD
24 1
Ti      2.57889846     2.84005537     3.16420413     4.07541805    -2.00754817     0.79965323
Ti      3.60227767     1.95248572     5.36481199    -4.07541805     2.00754817    -0.79965323
Ti      4.66156350     1.95248737     1.10026985    -7.49474407     1.12234274     2.97706860
Ti      1.51961270     2.84005391     7.42874636     7.49474407    -1.12234274    -2.97706860
Ti      1.84345741     0.44378496     1.10030405     4.07550933    -2.00805828    -0.80060608
Ti      4.33771874     4.34875627     7.42871217    -4.07550933     2.00805828     0.80060608
Ti      0.78417155     0.44378317     5.36477779     7.49463788    -1.12230674     2.97625047
Ti      5.39700459     4.34875806     3.16423833    -7.49463788     1.12230674    -2.97625047
O       2.00876040     1.68753519     4.35229162    -2.69810869    -1.35766407    -1.07189073
O       4.17241573     3.10500595     4.17672450     2.69810869     1.35766407     1.07189073
O       1.38226532     1.68755452     0.08781102     2.27873307    -1.05363332    -1.43470721
O       4.79891086     3.10498666     8.44120487    -2.27873307     1.05363332     1.43470721
O       3.43697466     0.70873540     0.08778335     2.69792614     1.35763708    -1.07212136
O       2.74420147     4.08380574     8.44123254    -2.69792614    -1.35763708     1.07212136
O       4.06346979     0.70871611     4.35231929    -2.27808618     1.05342198    -1.43470592
O       2.11770630     4.08382509     4.17669683     2.27808618    -1.05342198     1.43470592
O       1.06580988     2.91509514     2.30390002    -0.82660560    -3.41910439    -3.78554200
O       5.11536625     1.87744600     6.22511610     0.82660560     3.41910439     3.78554200
O       3.10248674     1.87740131     1.96063516     1.75269674    -3.88739706    -3.93682706
O       3.07868939     2.91513983     6.56838082    -1.75269674     3.88739706     3.93682706
O       0.33036876     0.51882459     1.96060792    -0.82707020    -3.41936227     3.78616550
O       5.85080732     4.27371655     6.56840806     0.82707020     3.41936227    -3.78616550
O       2.34324831     0.51886927     6.22514329    -1.75270548     3.88747188    -3.93703840
O       3.83792781     4.27367186     2.30387278     1.75270548    -3.88747188     3.93703840
