# total energy = -19517.47404631 eV

CRYSTAL
PRIMVEC
        5.93400000     0.00000000     0.00000000
        0.00000000     9.29699974     0.00000000
        0.00000000     0.00000000     4.64899994
PRIMCOORD
23 1
Ti      4.50869198     7.15454998     2.15362001     0.33587619     0.05739090     0.20736957
Ti      4.52176197     2.30669099     2.24931701     0.21917017    -0.44479921     0.61997702
Ti      1.31378301     7.03651101     2.22755502    -0.76969190    -0.49077672    -0.13115356
Ti      1.54169600     2.31216702     2.47364800    -0.63001358    -0.91302015    -0.38645032
Ti      2.94618899     4.49310602     0.21740602     0.86590621     0.68912455     0.30330930
Ti      2.98533102     0.02114402     0.00423802     0.05421713     0.86196008     0.44667972
Ti      5.91138498     4.54989600     0.10274098    -0.59276600     0.47387660    -0.17092083
Ti      0.08243301     0.00642601     4.48923001    -0.50443751     1.09897243     0.58594974
O       4.50208700     5.57800500     1.06025298    -0.73191209    -0.61271828    -1.32361957
O       4.46976100     1.01637402     0.91229798    -0.91453659    -1.45219637    -0.88716102
O       1.46025901     5.68317300     0.90232299     0.56426248    -1.84521252    -0.91769185
O       1.44659999     0.93663902     0.87768402     0.47002354    -0.56437612    -0.38048227
O       4.34872101     8.55793799     3.62967502     0.28648528    -1.42350876    -0.13348170
O       4.47097498     3.60916300     3.85761002    -0.24223529     1.40981378     0.06445244
O       1.35909599     8.24300000     3.65742402     1.41934306     1.38315194     1.30902212
O       1.54274700     3.65918702     3.91780499    -0.21865518     0.43764177    -1.19272054
O       2.98202498     1.43207598     3.25452301    -0.05106984    -0.42590854     0.19714789
O       5.81892898     6.19883099     3.14186001    -0.35501677    -1.07085149     1.05084445
O       5.90002598     1.34860902     3.13631698     0.86194157     0.11281105     0.61683667
O       2.83754801     7.71284700     1.46621400     1.59752289     1.31146544    -0.76780034
O       3.03405602     3.30213198     1.52056903    -1.09805583    -0.20705410     0.69686126
O       0.01384598     7.95068699     1.29010598    -0.74163524     0.02118564     0.19760144
O       0.08022401     3.11405698     1.39866902     0.17527731     1.59302783    -0.00456988
