# total energy = -19516.76034214 eV

CRYSTAL
PRIMVEC
        5.93400000     0.00000000     0.00000000
        0.00000000     9.29699974     0.00000000
        0.00000000     0.00000000     4.64899994
PRIMCOORD
23 1
Ti      4.54185002     7.05147598     2.17343701     1.35054623    -0.16512762     1.67978562
Ti      4.38115402     2.35819200     2.35706702     2.61932209    -0.27255066     1.07488170
Ti      1.55086501     7.03075901     2.20517500    -1.55241467    -0.03485157     0.57615512
Ti      1.52676299     2.32164400     2.20153701    -2.29699742    -0.34423690     0.74096932
Ti      3.02865899     4.53302101     0.19426600    -0.46786819     0.01247037    -1.70705578
Ti      2.97871302     9.26946898     4.50768200    -0.71506236    -0.60791109    -0.33722036
Ti      0.04822900     4.67761102     0.15820701     0.42644770     0.14810228    -1.34509651
Ti      5.86079600     0.10413801     4.60308699     0.84463290    -0.40597760    -0.84248706
O       4.36294800     5.67203398     0.93231602    -0.34899242    -0.52366835    -0.42714061
O       4.36911201     0.83206301     0.89519301     0.05098422     0.56380662    -0.16089661
O       1.57209898     5.27121402     1.28671798    -0.38901885     2.20078130    -0.35884669
O       1.51320701     0.76603000     0.84525900    -0.42643716     1.90572782     0.46397785
O       4.46178000     8.38012602     3.66109301    -0.54268706     0.14947011    -0.07128952
O       4.52607699     3.67478902     3.91129902    -1.18943673     0.10100043    -0.10394280
O       1.35046198     8.23335400     3.64722402     1.11928801     0.73294002     0.51282600
O       1.41607298     3.67648001     3.97051502     0.88301640     0.14178071    -0.97299836
O       2.92833699     1.46184099     3.15362103    -0.72932094    -0.86890541     0.74753515
O       5.74045702     6.04850899     3.31337800    -0.05115520    -0.01155043    -0.40286990
O       5.90804201     1.36027600     3.12402298     0.48339791    -0.10400836     0.56625534
O       2.85687398     7.89022902     1.22646300     0.66081438    -1.12899547     1.24819083
O       3.03095001     3.41064803     1.57721401    -0.36624041    -1.71553117     0.78674038
O       0.05602098     7.83264300     1.42655899    -0.15453030     0.71601676    -1.34871920
O       5.79204699     3.32739701     1.54999001     0.79171135    -0.48878206    -0.31875443
