# total energy = -18979.13873486 eV

CRYSTAL
PRIMVEC
        7.60600008     0.00000000     0.00000000
        0.00000000     7.60600008     0.00000000
       -1.89786986    -1.89786986     4.85670466
PRIMCOORD
22 1
Ti      5.73824601     4.96607703     0.11738898   -15.18441331     2.91078065     1.73020240
Ti      5.28066121     3.31426823     2.80202783    -8.45474550     8.53596796    -9.76587901
Ti     -0.35187075     4.13182121     4.74008283     4.48227625    14.52952044     4.78319956
Ti      0.13506699     3.40421699     1.41599302    13.13651989   -12.98528523     5.44713732
Ti     -1.76009677     2.56478423     4.66386480   -12.48286757    65.15480703    68.26342155
Ti      5.31836720     1.67795920     3.79902783   -42.52431962   -68.53387804   -51.57761944
Ti     -0.45732276     2.25479923     4.16291280    59.82424357   -13.42870993   -18.25672872
Ti     -0.67357078     0.21226924     4.15424483    -2.35465546   -12.18224739     2.82925300
O       4.44665601     4.37277101     1.36779402    -5.02437864     1.96078828     0.83236616
O       4.94422799     6.98570603     0.91334702     0.47528094    -1.55899824     0.06803604
O       1.23259802     5.09729298     1.47182201    -2.25677687     2.53457670     0.97200103
O       1.18918400     0.14819498     0.03253101     0.10925470     0.61930853    -0.88444387
O       6.49789102     4.41515901     1.67167802    -2.95949973    13.32922542     8.33557328
O       5.91668098     1.11873198     2.19699000     3.48313517    -0.78719752    -0.21139849
O       3.02377998     5.10504098     0.04363903     2.94961641     1.57450456    -0.62481172
O       1.86611701     3.13878798     0.97161198     2.22649903    -3.22135434    -2.32913442
O       3.89521320     2.06086022     2.84644681    -4.81761713     2.96082076    -0.15993527
O       0.70479721     2.51121022     2.70726081    -0.00366614    -0.71058607     1.71522366
O       4.35038723     4.27052423     4.03533283     3.28094020     7.23718989    -3.06104549
O       5.96492300     3.34744802     1.12987598    -1.72429323    -8.45792132    -5.63746896
O       0.77621920     0.10689920     3.68235779     5.98321099    -0.52513465    -2.75766369
O       4.75283124    -0.07719775     4.46599680     1.83625582     1.04382302     0.28971458
