# total energy = -19075.34411841 eV

CRYSTAL
PRIMVEC
        7.60600008     0.00000000     0.00000000
        0.00000000     7.60600008     0.00000000
       -1.89786986    -1.89786986     4.85670466
PRIMCOORD
22 1
Ti      3.83789902     6.57602801     1.15266098     0.39424333     0.45898065     1.49647387
Ti      3.71171199     2.85367802     1.30957198     0.87141172    -0.73469531    -0.43420626
Ti      0.05044599     6.76538699     1.04086302     0.02396423    -1.21775564     1.20011144
Ti     -0.02913100     2.85141901     1.07309299    -1.18765110     1.28468302     0.64654347
Ti      5.72419122     2.83905224     3.58118582    -0.35889785     0.40879398    -0.38295105
Ti      6.08577920    -0.95803175     3.68538579     0.27892520    -0.07854157    -0.14218463
Ti      1.76609325     2.79462623     3.63387081     0.50542610    -1.90967575     0.17821660
Ti      1.55297722    -1.02528177     3.77895280     0.98592638     1.67227208     0.12398635
O       3.42153098     4.60528800     0.76172700     0.32216295     2.08213411     0.46517907
O       3.93255602     1.03439499     0.85050400    -0.10661957    -2.02663117    -0.10551297
O       0.17764501     4.75533801     0.62231398     0.06045566     0.82679124     1.00935325
O       7.27331698     0.97812297     0.71218701     0.41343663    -0.28504931     0.41280131
O       5.61477621     4.77928624     4.04439980     0.15991625     0.78344011    -1.00399996
O       5.84049523     0.94617522     3.99733980     0.17634355    -0.70357981    -0.99085390
O       2.10917823     4.62504425     4.22662283    -0.20819027     1.65329811    -1.87211604
O       2.01587121     0.87520324     4.09067979    -1.10463323     0.14304029    -0.24736593
O       3.79244523     2.72944022     3.23346980    -0.18109623     0.41166899    -0.35354224
O       0.00628620     3.07915023     3.19604284    -0.21747813    -0.37865293     0.14798812
O       5.84182399     6.47710102     1.84585502    -0.88373682     0.43645212    -0.83712913
O       5.75013102     3.19672701     1.61292898    -1.00936817    -0.78545277     0.15362784
O       2.17532898    -0.60543201     1.97847002    -1.27709518    -1.76237694    -0.18434277
O       1.71000099     2.68712302     1.57974999     2.34255481    -0.27914323     0.71992304
