# total energy = -19072.40699569 eV

CRYSTAL
PRIMVEC
        5.93400000     0.00000000     0.00000000
        0.00000000     9.29699974     0.00000000
        0.00000000     0.00000000     4.64899994
PRIMCOORD
22 1
Ti      4.39168401     6.68200400     2.38944198    -0.33385144     0.21897888    -1.56824907
Ti      4.43051499     2.44280501     2.04317098     0.36293526    -0.81764530     2.47102672
Ti      1.44284601     7.22492902     2.66971002     1.13531627     1.06357193     0.45141492
Ti      1.62251899     2.43852301     2.03161598    -0.77062444     0.08199740     1.51205990
Ti      3.05731997     4.56863401     4.43277902    -1.25667907     0.87631353     1.82389781
Ti      2.99954303     0.21039400     0.16448702     1.41703806    -0.18778959    -1.66969790
Ti      5.82150602     4.46752199     4.25277202     1.05031891    -0.73726333     0.38547947
Ti      5.91052798     9.26551301     0.28689599    -1.51622586    -1.50748385     0.94085184
O       4.44354000     5.31492898     0.90072101     0.24300611     0.35822782     1.06117000
O       4.44246302     0.69020102     1.33937302     0.53516838     0.12772834    -0.25515946
O       1.62349802     0.59797299     1.35866000    -1.76060828     1.70153048     0.31251591
O       4.39108202     8.44732899     4.00012502     1.07649224     1.30818317     0.38450142
O       4.24780898     4.18035200     3.22087601     1.71561704    -2.64217432    -1.78701660
O       1.49471702     8.46644801     4.14344702    -0.16059296    -0.88364760    -2.13564881
O       1.57353898     3.93599700     3.33864700    -1.29608433     0.19995760     0.20791028
O       3.02611698     6.25924202     3.57106001    -2.12768456    -0.10761793     0.32039197
O       2.98752599     1.64064702     3.28017001    -0.05996663    -0.52881801     0.77410828
O       5.80059003     6.24349202     3.55267301     2.32665253    -0.87565815     0.14427854
O       3.03834198     7.74520598     1.68575499    -1.36508248     0.06764344    -0.62529869
O       3.08601001     2.90474097     0.97215401    -1.36885583     1.67377412    -1.43072457
O       5.89104002     7.83389201     1.68963798     0.44381474    -0.11623782    -0.71771986
O       5.84465297     2.80877098     0.94985602     1.70989582     0.72642922    -0.60009184
