# total energy = -19072.06825816 eV

CRYSTAL
PRIMVEC
        5.17600016     0.00000000     0.00000000
        0.00000000     5.50899976     0.00000000
        0.00000000     0.00000000     9.26300011
PRIMCOORD
22 1
Ti      1.71895599     3.37853702     3.22207000     0.61402517     0.14285620    -0.62517785
Ti      3.72280402     2.30269999     6.02599397    -0.58342852     0.06970623    -0.67738232
Ti      4.30604700     2.05426302     1.16714202     1.25777848     2.21571839     0.58736591
Ti      0.85728403     3.28922201     8.17464501    -0.88105130    -1.49806513     0.79139767
Ti      1.72972199     0.44443401     1.30598802     0.56828240     0.97051030    -1.16017808
Ti      3.15462699     5.15423399     8.01086301     1.34037263    -2.41082303    -0.42499708
Ti      0.59663502     0.31598999     6.03594600     1.04389681     1.08943518    -2.19495364
Ti      4.30108098     4.99800298     3.48613802     1.07952923    -1.32100064     0.33650508
O       3.30751699     3.36983100     4.40199001     0.59285316     0.30956968     1.88701636
O       1.09781202     2.15443002     0.46719398    -1.47457038    -0.53527611    -1.54340166
O       4.37535101     3.86668203     8.95232099     1.12486422    -0.42124456     0.94801237
O       3.40694199     0.91610800     0.07147999    -0.04184138    -0.09891706    -0.77903632
O       1.44423701     4.88201500     8.89766598     0.67429802     2.66404721     0.75773626
O       4.64682402     1.07280702     4.63441799    -0.86351226    -1.43949949     0.22551360
O       1.04238901     4.68584597     4.28343499    -1.71177119     0.61732981     1.77618917
O       0.00421902     3.40755901     2.35527899     0.23111089     0.21814687     1.14610463
O       0.43699801     2.32538502     6.40061898    -0.88199773    -0.14967580     1.60705397
O       2.77232400     1.89516201     2.34582502    -0.18048560    -0.89819800    -0.13671332
O       2.69404498     3.19350602     7.78561401    -0.65858112    -0.47516524    -4.02921685
O       0.02708297     0.54898398     1.98096202    -0.43612688    -0.25246854     0.88122357
O       2.49975099     0.56039400     6.27924101    -0.00894384     0.31035772     1.22362136
O       2.79392602     4.62803098     2.26872998    -0.80470108     0.89265598    -0.59668256
