# total energy = -4987.38549016 eV

CRYSTAL
PRIMVEC
        2.81762128     0.00000000     0.00000000
        0.87421579     4.32736859     0.00000000
       -0.00000582    -0.00005780     4.43725282
PRIMCOORD
6 1
Ti      1.84591557     2.16365540     2.21862651     0.00000000     0.00000000     0.00000000
Ti      0.00000000     0.00000000     0.00000000     0.00000000     0.00000000     0.00000000
O       1.57918124     0.84332918     0.86475528    -2.91361889     1.41374937     1.53387855
O       2.11264991     3.48398162     3.57249774     2.91361889    -1.41374937    -1.53387855
O       0.26673195     1.32030280     3.08338258     2.91379553    -1.41498787     1.53512373
O       0.60747801     3.00700789     1.35387044    -2.91379553     1.41498787    -1.53512373
