# total energy = -19074.05491811 eV

CRYSTAL
PRIMVEC
        7.60600008     0.00000000     0.00000000
        0.00000000     7.60600008     0.00000000
       -1.89786986    -1.89786986     4.85670466
PRIMCOORD
22 1
Ti      3.67583298     6.63661197     1.36596502     0.07500631    -0.66689350     1.72122488
Ti      3.79808700     2.90156099     1.27670198     1.18123542    -0.27665157     0.80705827
Ti      0.01231300     6.58623298     1.05043102     0.49178434     0.61611908    -0.04272224
Ti      0.27744202     2.86844301     1.02715802    -0.75386032    -1.11983308    -0.93309559
Ti      5.86308321     2.93331120     3.40825482    -0.93850057    -0.32574321    -0.04501900
Ti      5.84232523    -0.92680278     3.44641083     0.89578656     0.45351963     2.06147400
Ti      1.84687221     2.87018422     3.65022382     1.71013494    -1.47515633     1.18434851
Ti      1.26303724    -1.07297276     4.04000181    -0.50564491     2.91430949    -1.28406930
O       3.56170601     4.68098199     0.95130602     0.06477280     3.47526733     0.49961978
O       3.95977600     1.05070799     0.88499201     0.31137691    -1.79018189     0.47863623
O       0.17478100     4.69834398     0.66040098     0.41270592     0.66583112     0.27415760
O      -0.10146000     0.87744499     0.48292599    -0.11493298     0.57602657     1.79633377
O      -1.42917080     4.75097124     3.86406281    -0.50224231     0.28459474     0.65922261
O       5.94965021     1.01531122     3.79225579     0.24465058    -0.88213425     0.38015497
O       1.68966222     4.83169125     4.41257180     0.22406735    -2.16401066    -2.17407679
O       1.53915225     1.14200620     4.23826479     0.16538550    -1.74544725    -1.27325318
O       3.91396920     2.91787325     3.25451782    -0.95358678     0.45445962     0.78460790
O       0.23557722     3.01103824     2.90708380    -2.02415596     0.52570620     1.08660645
O       5.78682798     6.48967998     1.65083601    -0.64844351    -0.07256659    -2.04757050
O       5.74521099     3.07621203     1.59570600     0.82619320    -0.56449208    -1.19525617
O       1.75817898     6.62861701     2.28489598     0.70285090     0.05525611    -1.90436154
O       2.02746400     2.29981502     1.74385399    -0.86458287     1.06202104    -0.83402092
