# total energy = -4988.69280100 eV

CRYSTAL
PRIMVEC
        4.09349138     0.00000000     0.00000000
        0.40831882     4.07307592     0.00000000
       -2.25094141    -2.03657081     5.23076475
PRIMCOORD
6 1
Ti      0.30608226     3.05496188     1.30769093     0.00003368    -0.00003368     0.00000000
Ti      1.94478617    -1.01845709     3.92307319    -0.00003368     0.00003368     0.00000000
O       0.10212286     1.01826254     0.85204875    -0.00046357    -0.00152646    -0.90795251
O       2.14874546     1.01824214     4.37871549     0.00046357     0.00152646     0.90795251
O      -0.10210020    -1.01824204     3.46743101    -0.00152646    -0.00046357    -0.90795251
O       2.35296846     3.05474666     1.76333323     0.00152646     0.00046357     0.90795251
