# total energy = -19517.33446994 eV

CRYSTAL
PRIMVEC
        7.60600008     0.00000000     0.00000000
        0.00000000     7.60600008     0.00000000
       -1.89786986    -1.89786986     4.85670466
PRIMCOORD
23 1
Ti      3.91099199     6.60901199     1.18221701    -2.11941666    -0.22298312     2.04703493
Ti      3.84539000     2.67624499     1.25435302    -0.30539420     0.20965606    -0.58629658
Ti     -0.10619899     6.66409702     1.10046902     2.40083197     0.25032398     0.94950129
Ti     -0.06496201     2.85707401     1.11552099    -1.76470276    -0.69989671     2.35814805
Ti      5.74323123     2.89818420     3.73356283    -2.14820300     0.33922762    -1.18843143
Ti      5.83478022    -0.86879379     3.63711980    -1.15348678    -0.87616029    -0.72056761
Ti      1.94685924     2.92389920     3.67759879     0.09517405    -0.97495600     1.14293625
Ti      1.85801223    -0.97988879     3.65020583     1.93855054     1.44169213    -1.53016973
O       3.81513598     4.74164697     0.78724900    -0.28222367    -0.44462412     0.22609030
O       3.63181200     0.85329599     0.92645702    -0.46122522     1.75472868    -0.76695624
O       7.25913498     4.78183502     0.78457602     0.81246787    -0.45428941    -0.39657018
O       0.16279598     0.82788998     0.68943800    -0.44640641     1.67892687     0.30803704
O       5.66540222     4.85493123     3.87484379     0.35111743    -2.41433901     0.20352500
O       5.85994720     0.91664623     4.21708082     0.40928352     2.12976921    -3.08055271
O       2.08948421     4.83747023     4.11216883    -0.44409242    -1.54996955    -0.76364800
O       1.89797120     0.88048924     4.13684580    -0.48259496     1.12205683     0.36292934
O       3.67842722     2.92389624     3.23304079     1.92603440    -0.32311477    -0.37692798
O       3.78090620    -0.67158679     3.09402381     1.05022995    -0.97680128     1.01645516
O       0.09436924    -0.91730775     3.20289484    -2.95898448    -0.08069050    -0.21840064
O       5.71002600     6.85721798     1.56601302     0.86703621    -0.19256104     0.60025357
O       5.62450598     2.48075300     1.56296300     1.67275879     0.72983361     1.02637345
O       1.82371102     6.58274501     1.65960903    -0.00195327    -0.64171751    -0.59068212
O       1.56496102     2.81385600     1.83380502     1.04519907     0.19588831    -0.02208090
