# total energy = -19072.45367779 eV

CRYSTAL
PRIMVEC
        5.93400000     0.00000000     0.00000000
        0.00000000     9.29699974     0.00000000
        0.00000000     0.00000000     4.64899994
PRIMCOORD
22 1
Ti      4.42867398     7.17422002     2.28104399     0.09444514    -0.57936669    -0.58708000
Ti      4.39701600     2.27912101     2.27587298     0.45125217    -0.31147564     0.59970052
Ti      1.46824202     6.99343402     2.48829901     1.55036807     1.19079607     0.33495984
Ti      1.50330298     2.42127898     2.31488202    -0.56161938     0.44358437    -0.09463771
Ti      2.98497599     4.86984498     4.47811702     0.97285515     0.35703534     0.97419212
Ti      2.88023599     0.03671702     0.27329301     0.63088570     0.60660496    -0.99161984
Ti      5.83423803     4.61467301     4.24408500     0.12559484    -0.84933056     2.08427712
Ti      0.10017601     9.18735099     4.64161898    -1.55219998     0.34121406     1.57126497
O       4.41206501     5.60888599     0.76707402     0.91971659    -0.12214724     0.08192695
O       4.43646998     0.75016400     1.14711398     0.84391685    -0.47142917    -0.07528836
O       1.44930901     0.78312401     1.34849699    -0.15158870    -0.65961856    -1.34713463
O       4.67069002     8.13926502     3.94955298    -1.18246261     0.91991560    -1.42692242
O       4.28958397     3.86853499     3.71976401     0.45468279    -1.99523156    -1.22693654
O       1.47722200     8.17995499     3.98470803     0.85735035     0.78507944    -1.49828007
O       1.62804799     3.75251299     3.70233799    -1.53836255     0.41076114     0.54750377
O       3.04028401     5.95813699     2.95561100    -0.45321804    -0.08736766     1.14817411
O       3.14415002     1.44517900     3.48294300    -0.31200374    -0.94851270     0.33863241
O       0.07645997     6.11994701     3.18562699    -1.65193362    -2.37622779     0.71247275
O       2.80893201     7.59406603     1.24255898     1.22464851     1.29787587     0.40741433
O       3.02792000     3.02633702     1.47044599    -0.90387654     1.86445183    -1.60148547
O       0.12009699     7.69396501     1.45847902    -0.87410521     1.41547201    -1.11887663
O       5.87731099     3.32244302     1.35704802     1.05565395    -1.23208260     1.16774252
