# total energy = -19930.53263606 eV

CRYSTAL
PRIMVEC
        7.27840226     0.00000000     0.00000000
        0.00002746     4.64785242     0.00000000
        0.00000000     0.00000000    11.11615092
PRIMCOORD
24 1
Ti      2.63808681     2.75431302     4.12401273     0.47571905    -0.02089536     1.43401147
Ti      4.64034243     1.89353934     6.99213831    -0.47571905     0.02089536    -1.43401147
Ti      6.27716272     1.89354091     1.43401838     0.47586124     0.02090822    -1.43427398
Ti      1.00126659     2.75431164     9.68213272    -0.47586124    -0.02090822     1.43427398
Ti      2.63807332     0.43038687     1.43406297     0.47571905    -0.02089536    -1.43401147
Ti      4.64035593     4.21746561     9.68208819    -0.47571905     0.02089536     1.43401147
Ti      1.00125303     0.43038519     6.99209372    -0.47586124    -0.02090822    -1.43427398
Ti      6.27717621     4.21746730     4.12405726     0.47586124     0.02090822     1.43427398
O       2.30366981     1.63658780     5.67248675     1.10891978     0.93725821    -1.14103364
O       4.97475950     3.01126450     5.44366429    -1.10891978    -0.93725821     1.14103364
O       1.33559296     1.63660657     0.11444701    -1.10838550     0.93724150    -1.14156920
O       5.94283640     3.01124579    11.00170367     1.10838550    -0.93724150     1.14156920
O       4.97474600     0.68733823     0.11441093    -1.10891978    -0.93725821    -1.14103364
O       2.30368330     3.96051407    11.00173975     1.10891978     0.93725821     1.14103364
O       5.94282285     0.68731952     5.67252277     1.10838550    -0.93724150    -1.14156920
O       1.33560634     3.96053284     5.44362821    -1.10838550     0.93724150     1.14156920
O       0.26445779     2.82708732     3.00274969    -1.83149619     0.65937713     0.67052338
O       7.01397151     1.82076498     8.11340129     1.83149619    -0.65937713    -0.67052338
O       3.90366730     1.82072177     2.55536113    -1.83191888    -0.65913442    -0.67072753
O       3.37476194     2.82713059     8.56078967     1.83191888     0.65913442     0.67072753
O       0.26444424     0.50316105     2.55532565    -1.83149619     0.65937713    -0.67052338
O       7.01398500     4.14469125     8.56082515     1.83149619    -0.65937713     0.67052338
O       3.37474845     0.50320432     8.11343671     1.83191888     0.65913442    -0.67072753
O       3.90368079     4.14464799     3.00271421    -1.83191888    -0.65913442     0.67072753
