# total energy = -19516.14300726 eV

CRYSTAL
PRIMVEC
        5.17600016     0.00000000     0.00000000
        0.00000000     5.50899976     0.00000000
        0.00000000     0.00000000     9.26300011
PRIMCOORD
23 1
Ti      1.90709798     3.19844398     3.43695200     0.90723337    -0.82063036     3.04671647
Ti      3.42931502     2.25976699     5.86186002     0.95242747     0.59779533    -1.97178412
Ti      4.27958999     2.27096898     1.52633902     0.44429476    -0.95462602    -1.54135609
Ti      0.77268298     3.58067098     7.88235899    -1.24339135    -2.06437060    -0.31969880
Ti      2.07897501     0.11875902     1.48370299    -0.52863546     0.76884472    -1.56453408
Ti      3.06468797     5.18240199     7.94601700     1.70465437    -1.77425184     0.49285032
Ti      0.77017701     0.52419399     5.96375500    -1.03275519     1.09812782    -2.91848034
Ti      4.51724899     4.80863600     3.12897100     2.11464366     2.65068647     3.67493979
O       1.83709698     1.97560600     4.86693800    -0.85371070    -0.69480463    -0.80362276
O       3.55267798     3.59019400     4.44127200     0.31976359     1.07889031    -0.17021969
O       4.57660998     3.02034102     9.22170999     0.50007821     0.17388866    -0.80517879
O       3.41756099     0.58226500     0.21670099    -0.25571739     1.47566181     1.80135899
O       1.69637801     4.49015199     9.13526402    -0.39990285     0.64205458     1.95581525
O       4.51032799     0.97413800     4.71216598    -1.03420503    -0.96969680     0.05442565
O       0.83018899     4.63564499     4.27169498     2.20751503    -0.07026828     1.14504610
O       0.39523402     3.34302198     2.33752001    -0.31499779     0.15552660    -0.54990286
O       0.01076500     2.10252700     6.65642299     0.21775709     1.03631540     1.86512341
O       2.70080400     1.73063001     2.43090302    -0.52146568    -1.14687364    -0.67388767
O       2.58809300     3.48358998     7.13537900    -0.33127365     0.11156149    -0.62485209
O       0.16354101     0.69275901     1.91640800     0.95976925    -0.66225009     0.04222524
O       4.93603701     4.95971198     7.25603702    -0.60587374     0.42745249    -0.58703732
O       2.44405799     1.00536602     6.99684600    -0.93496581    -0.25067699    -0.76738947
O       3.17157601     4.18448302     2.08038998    -2.27124190    -0.80835642    -0.78055713
