# total energy = -19518.11573987 eV

CRYSTAL
PRIMVEC
        5.93400000     0.00000000     0.00000000
        0.00000000     9.29699974     0.00000000
        0.00000000     0.00000000     4.64899994
PRIMCOORD
23 1
Ti      4.51018802     7.03089898     2.34463998     0.23302688     1.05140058    -0.50326535
Ti      4.45185401     2.36100802     2.30895899    -0.19586337    -0.66462964    -0.11398784
Ti      1.43956998     6.98403499     2.23006501    -0.14197740     0.98923565    -0.31841093
Ti      1.48319302     2.26691803     2.36244399    -0.02894369     0.40620077     0.50841604
Ti      3.02450098     4.55258099     0.10317200    -1.76731475    -0.44140535     0.61441726
Ti      2.99557002     0.05833301     0.01862900    -0.22373542    -0.49362345     0.02879045
Ti      5.90924398     4.62427599     4.61388602     1.19893644    -0.24437136    -0.21054977
Ti      0.01816999     0.09633698     4.55364099     0.08281141    -0.79316711     0.66957285
O       4.44468101     5.49304300     0.88543202    -0.30379009     1.06928801     0.50334711
O       4.53626498     0.90426697     0.89017700    -0.45653656     0.19605235     0.38970714
O       1.42146699     5.47195503     0.88288901     0.57349274     1.13465550     0.61879200
O       1.43094900     1.04201499     0.98484898     0.20166275    -1.67255953    -1.38145733
O       4.41347500     8.43566698     3.71854102     0.36824716    -0.89093386    -0.06598559
O       4.35606499     3.75371300     3.70525100     0.38140118    -0.04179895    -0.16647282
O       1.64316198     8.33430599     3.72685900    -0.99925447    -0.04801074     0.28455746
O       1.46455202     3.66552101     3.83050498    -0.20392507     0.20996356    -0.74363222
O       2.93812899     1.38757001     3.36133998    -0.01107272     0.76954329    -0.96446255
O       5.89618198     6.07005401     3.18841501     0.11088478    -0.52848968     0.48695786
O       5.89619002     1.33322398     3.18119201     0.01591205     0.44568084     0.25111383
O       2.95162698     7.82127198     1.42714897     0.07311269    -0.53578930     0.43515217
O       2.92219700     3.18287998     1.42400000     0.49679388     0.16074260     0.16723901
O       5.91994902     7.95228902     1.44220401     0.10609687    -0.69030597    -0.08329529
O       5.83711701     3.21402100     1.46822302     0.49003445     0.61232233    -0.40654375
