# total energy = -19074.40637737 eV

CRYSTAL
PRIMVEC
        5.17600016     0.00000000     0.00000000
        0.00000000     5.50899976     0.00000000
        0.00000000     0.00000000     9.26300011
PRIMCOORD
22 1
Ti      1.94975802     3.36593398     3.27482802    -0.38953179     0.03869049     0.83272097
Ti      3.73646600     2.26053303     5.89318398    -1.39472525    -1.03407236     0.17354747
Ti      4.42300702     2.25317000     1.28001002    -0.09482489    -0.56473042    -1.30917742
Ti      0.59975399     3.24817198     8.15167697    -0.24124670    -0.08203159    -0.09550289
Ti      1.81800702     0.45236098     1.28752699     0.34615495     0.73832623    -2.12529677
Ti      3.23286998     5.14074399     7.88767002    -0.60999497     1.46827066     0.87575611
Ti      0.60465698     0.02934399     6.11194400     1.44269717     0.76233160    -0.48545222
Ti      4.52154099     5.02242398     3.34015998     1.09652294    -0.43535966     1.36276334
O       3.64625203     3.41068099     4.40179199    -0.81327031     0.62738591     0.30425469
O       0.83524797     1.94357898     0.31181902     0.48387202     0.40709963    -1.23169385
O       4.13320098     3.82561401     8.86107803     0.62368789    -1.78202095     0.86012123
O       3.50261803     0.83629802     0.13335701    -0.64765316     0.66666261     0.03342821
O       1.74680299     4.71222303     9.16848101    -1.21031538    -0.60397087    -0.32869766
O       4.55255501     1.01068198     4.77791001    -0.10182858    -1.33627403     0.02808854
O       1.03613398     4.73162298     4.36839900    -0.70786173    -0.79041500     0.30127298
O       0.29059202     3.58613199     2.21697401    -0.43722680     0.46464659     1.03934364
O       4.92657500     1.49728703     7.17681998    -0.29162697     0.36979985     0.03560414
O       2.71841899     1.91195101     2.28077803     0.26295299     0.42687862     0.45308537
O       1.70390201     3.92168302     6.79712398     0.90098070     0.59951180    -0.21263931
O       0.15383199     0.80958801     2.22113298    -0.42082598    -0.69194480     0.78993112
O       2.20253102     1.08332701     6.53794698     1.21197683    -0.39895951    -0.14624363
O       2.78410301     4.71884002     2.47487701     0.99208726     1.15017520    -1.15521431
