# total energy = -19071.12484437 eV

CRYSTAL
PRIMVEC
        5.17600016     0.00000000     0.00000000
        0.00000000     5.50899976     0.00000000
        0.00000000     0.00000000     9.26300011
PRIMCOORD
22 1
Ti      1.55112398     3.16542099     3.61741800     0.19378849    -0.84081352    -0.03503592
Ti      4.46544201     3.20612202     5.93164400    -1.15204953    -1.43686282    -1.40954458
Ti      4.06706801     2.15779300     1.28352402     2.96976615     0.87784668     2.66597271
Ti      1.54546502     2.77405499     8.17501401    -0.18297802    -0.02755761     0.86537091
Ti      1.57217100     0.61074998     1.43462598    -1.21871646    -2.29563191    -0.02792013
Ti      3.03386298     5.27704698     8.20734499    -0.22536036    -1.76483723    -1.84136023
Ti      1.47917900     0.11591098     5.67688601     2.16021442     3.03688585    -0.55837337
Ti      4.08578300     4.88695503     3.45347000    -1.68865722    -0.21116272     0.55383871
O       3.28937801     3.34651402     4.35082402    -0.98283463    -1.55495235     1.72745749
O       0.60051997     1.68909700     0.27813599    -0.93847229     1.25593551    -0.72446001
O       5.16920002     3.55569800     7.59959000    -0.83778759     0.60465324     0.35584647
O       3.16487297     1.09126297     0.17614702    -0.36462473     0.37232210    -0.60196515
O       1.89655698     4.51002398     0.08085098    -0.38524396    -1.05241565    -0.18252320
O       2.72901502     0.40159801     4.43899601     0.98304340     0.24012930     1.60824722
O       0.36949198     4.35776301     4.95757500    -0.37701359     0.77751911    -1.75196654
O       4.83261799     3.30416698     2.58448899     1.10533977     1.20904397    -1.06731931
O       0.73382200     1.88426202     5.11183901    -1.16415841     0.70327874     0.17250077
O       2.43152602     1.87491098     2.30140498    -0.23552831     1.88119589     1.27831209
O       2.62942402     4.31687798     6.52724802     0.84939201    -1.30427818     1.71505680
O       4.79694002     0.74151899     2.43405199     1.41728181    -0.57533263    -1.12072089
O       1.82706801     1.03292198     7.38243201     0.42709176     0.33846375    -0.70710994
O       2.20365002     4.63220301     2.58761902    -0.35249297    -0.23342951    -0.91430416
