# total energy = -19517.61264307 eV

CRYSTAL
PRIMVEC
        5.17600016     0.00000000     0.00000000
        0.00000000     5.50899976     0.00000000
        0.00000000     0.00000000     9.26300011
PRIMCOORD
23 1
Ti      2.00606201     3.27933200     3.44471101    -0.74595418    -1.00007363     1.73281516
Ti      3.40341698     2.27720603     5.97400803    -0.59422407    -1.15322736    -1.49416116
Ti      4.33835099     2.25041198     1.36229698     0.34644600    -1.22375043    -1.53655815
Ti      0.71760901     3.35072997     7.83851602     0.44909861    -0.19772433     1.33454676
Ti      1.87763799     0.35050600     1.37027401     0.99160441    -0.87264328    -1.61974366
Ti      3.40530101     5.02510902     7.96726198    -0.48734764     1.08921895     2.16625549
Ti      0.72410900     0.53847299     5.78865200     0.20779895     0.70066675    -1.26474026
Ti      4.56611502     4.82813697     3.39774197    -1.29092978     1.62470203     0.67208790
O       1.79005497     1.89101803     4.92326600    -0.59536615     0.80775427    -1.18445727
O       3.69499200     3.48030500     4.48189498    -0.99877368     0.05591020     0.46601776
O       4.47640799     3.37813199     9.18877601     0.05050137     0.63940737    -0.61517086
O       3.62310999     0.76736797     0.18530999    -0.78808378    -0.22953403    -0.74124932
O       1.75817702     4.62440601     9.20449797    -0.39221550    -0.13239926    -1.00681429
O       4.31484801     0.78242402     4.76628700     0.06834535     0.15993939     0.00559601
O       0.95579900     4.70211500     4.25182300     2.25602662     0.35670959     2.36487817
O       0.14533599     3.35689198     2.53235201     1.30537810    -1.75712675    -1.11625102
O       4.91597299     1.82405001     7.03360001     1.20254936     0.44159099     0.11588532
O       2.72381702     1.97563998     2.18741502    -1.33777684     0.13130629     0.40180752
O       2.52622700     3.55066901     7.04483899    -0.40488102    -0.26254444     0.35474449
O       0.10267801     0.52111502     1.97350099     1.02679794     0.98964857     0.04461097
O       5.11683603     4.60194402     6.79936599    -0.89374459     0.17072620     0.79773159
O       2.41551603     0.78613397     6.93910901     0.15816558    -0.83648096     0.29936291
O       2.79247502     4.65967102     2.42240200     0.46658495     0.49792414    -0.17719407
