# total energy = -19953.93476201 eV

CRYSTAL
PRIMVEC
        6.10091821     0.00000000     0.00000000
        0.00002578     4.79933798     0.00000000
        0.00000000     0.00000000     9.71360164
PRIMCOORD
24 1
Ti      2.21130471     2.84408328     3.60367693     0.12143839     0.54147041    -0.90295634
Ti      3.88963933     1.95525486     6.10992477    -0.12143839    -0.54147041     0.90295634
Ti      5.26165844     1.95525653     1.25308511     0.12350119    -0.54174963     0.90412002
Ti      0.83928560     2.84408183     8.46051669    -0.12350119     0.54174963    -0.90412002
Ti      2.21129193     0.44441440     1.25312405     0.12149907     0.54159485     0.90310829
Ti      3.88965211     4.35492391     8.46047775    -0.12149907    -0.54159485    -0.90310829
Ti      0.83927282     0.44441257     6.10988582    -0.12360146     0.54171544     0.90404983
Ti      5.26167122     4.35492574     3.60371587     0.12360146    -0.54171544    -0.90404983
O       1.93098824     1.68992852     4.95677657     0.90908148    -0.12341171     0.47255248
O       4.16995585     3.10940962     4.75682513    -0.90908148     0.12341171    -0.47255248
O       1.11952474     1.68994788     0.10000699    -0.90840579    -0.12415168     0.47254914
O       4.98141941     3.10939032     9.61359443     0.90840579     0.12415168    -0.47254914
O       4.16994307     0.70974058     0.09997548    -0.90908379     0.12367088     0.47271292
O       1.93100102     4.08959757     9.61362594     0.90908379    -0.12367088    -0.47271292
O       4.98140663     0.70972127     4.95680808     0.90845284     0.12415116     0.47248769
O       1.11953741     4.08961693     4.75679361    -0.90845284    -0.12415116    -0.47248769
O       0.22167616     2.91922942     2.62388614    -0.17941113    -0.10383995     0.47841357
O       5.87926794     1.88010873     7.08971556     0.17941113     0.10383995    -0.47841357
O       3.27214184     1.88006397     2.23294560    -0.17815078     0.10377619    -0.47858301
O       2.82880225     2.91927423     7.48065593     0.17815078    -0.10377619     0.47858301
O       0.22166338     0.51956042     2.23291457    -0.17901827    -0.10377079    -0.47831047
O       5.87928071     4.27977778     7.48068696     0.17901827     0.10377079     0.47831047
O       2.82878948     0.51960519     7.08974653     0.17846934    -0.10425493    -0.47843594
O       3.27215462     4.27973296     2.62385511    -0.17846934     0.10425493     0.47843594
