# total energy = -39037.07888262 eV

CRYSTAL
PRIMVEC
        7.60600008     0.00000000     0.00000000
        0.00000000     7.60600008     0.00000000
       -3.79573973    -3.79573973     9.71340985
PRIMCOORD
46 1
Ti      1.93341946     4.69646947     6.07126260    -0.37635693     1.43924521    -0.13278647
Ti      3.78190301     6.69283399     1.24761300     0.62892883     1.36099648    -0.05366074
Ti      1.92277946     0.96791747     6.09344264     1.28352371    -0.67670278    -1.95176087
Ti      3.77198301     2.88523899     1.21046798     0.72310375    -2.01325525     0.09308657
Ti     -1.90016755     4.77861345     6.10234362    -0.09892143    -0.35421253    -1.07860054
Ti      0.03925802     6.67388299     1.18549600    -0.65373767    -0.69930278     0.01292057
Ti     -1.86678557     0.96818746     6.06480161    -1.05329291     0.30344351     0.14555766
Ti     -0.01479802     2.82118198     1.30319598    -0.56612910     0.72860668    -1.13750608
Ti      3.74862946     0.98445447     8.45259764     1.05676930    -0.47080002     0.45333168
Ti      5.66843399     2.83972901     3.59324699     0.16858678     0.09314750     1.72256957
Ti      3.82149045    -2.82241057     8.51279060    -1.01401775     0.57793407     0.02085011
Ti      5.68096099    -0.92656402     3.68055800    -0.27775998    -0.05583410    -1.08299199
Ti      0.01915246     0.90068746     8.31700862    -0.66543466    -0.10499952     3.31152451
Ti      1.92145101     2.79291201     3.47095698    -0.04193445     0.32372103     2.33856780
Ti     -0.01593755    -2.89732355     8.48321562     0.92594252     0.35929920     1.05684206
Ti      1.84777101    -0.96752398     3.71555599     0.42550873     0.71939185     0.90720997
O       1.97045843    -0.84562657     5.74919162    -0.64883766    -2.06519773    -1.88730149
O       3.85693601     0.94506998     0.96568599    -0.36750437     0.16772598    -1.63834611
O      -2.03147156     2.76247442     5.72492064     0.60904417     1.80684984    -0.32268025
O      -0.02778001     4.73442201     0.73405399     0.14071473     0.17790061     0.54650489
O      -1.80765657    -0.92681554     5.61866460    -0.39642749    -0.12186519     0.61738123
O       0.11818401     0.98759900     0.76781000    -0.33796289    -0.44739320     0.40128893
O       3.67400245     2.87737643     8.86175061     0.30544203    -0.07704776     0.25033272
O       5.87630598     4.80894700     4.14632299    -0.83229931    -1.21644541    -0.28645597
O       3.67333346    -0.93991553     8.98350064     0.30592822     0.06670755    -0.50519033
O       5.72840099     0.98473801     3.99911101     0.17360429    -0.52181381     0.45205692
O      -0.04288654     2.68153147     9.06342964     0.30078499     0.64523735    -0.86517936
O       1.93310201     4.58160398     4.11828602    -0.09898725     1.21467340     0.25465038
O      -0.04550554    -0.94059954     8.95189162     0.01612879     0.42015878     0.01521759
O       1.94502099     1.03975302     3.98092901    -0.46510399    -1.33447451     0.89930897
O       1.94821944     0.89174844     7.94954460    -0.16060942     0.61655488     1.85554476
O       3.80432097     2.74311098     3.24044002     0.29760633     1.06776437     0.00520829
O       1.89249247    -2.82446156     8.04246363    -0.99646637    -0.48688947     0.67511126
O       3.75101002    -0.90212100     3.20606403    -0.32065319    -0.72301145     0.98914695
O      -1.84639156     1.09141347     8.01051963    -1.12503700    -0.65848316     0.38806651
O      -0.00056098     2.83238800     3.26567701    -0.34462180     0.08063882    -0.57676242
O      -1.95177154    -2.71940654     8.08361965     0.87146031    -0.45930950     0.03597078
O      -0.05213502    -0.93143700     3.14454802     1.19352299     0.05254128     0.44980258
O       3.73319045     4.75937145     6.46421063     1.32960716    -0.30575956    -0.10790461
O       5.63078001     6.62417499     1.61305900     0.75845257    -0.44658690     0.12714650
O       3.81062348     0.87685745     6.44652960     0.54073405     0.44644600     0.04424999
O       5.65002502     2.75150701     1.75414998     0.77682080     0.82111167    -1.88577400
O      -0.00868655     4.78820944     6.48185864    -0.19075253    -0.73321873     0.57081005
O       1.87544598     6.64954099     1.50324101    -0.29407646    -0.64315835     0.78237027
O       0.07743244     0.87344145     6.56836764    -0.98380805     0.43351541    -3.59918529
O       1.93072399     2.82277999     1.66213802    -0.52148291     0.69215048    -2.31054380
