# total energy = -4981.39487926 eV

CRYSTAL
PRIMVEC
        4.44428527     0.00000000     0.00000000
        0.00000000     2.98436942     0.00000000
        0.00000000    -0.00009565     5.92136833
PRIMCOORD
6 1
Ti      2.22214264     1.49213683     2.96068405     0.00000000     0.00000000     0.00000000
Ti      0.00000000     0.00000000     0.00000000     0.00000000     0.00000000     0.00000000
O       2.22214264     0.58159100     1.15398746     0.00000000    -0.03122169     2.53643123
O       2.22214264     2.40268272     4.76738065     0.00000000     0.03122169    -2.53643123
O       0.00000000     0.91050790     4.11467264    -0.00000000     0.03156185     2.53863184
O       0.00000000     2.07376576     1.80669541    -0.00000000    -0.03156185    -2.53863184
