# total energy = -39036.48020198 eV

CRYSTAL
PRIMVEC
        5.93200024     0.00000000     0.00000000
        0.00000000     9.29399984     0.00000000
        0.00000000     0.00000000     9.29399984
PRIMCOORD
46 1
Ti      4.46664700     6.89555602     6.96146399    -0.32320733     0.97694937    -0.34941896
Ti      4.43561102     6.97851900     2.32883801     0.80027750    -0.58074557    -0.72877792
Ti      4.46055802     2.36109401     7.01751101     0.44562608    -0.47801659    -0.24173804
Ti      4.41439202     2.41049800     2.29974099     0.34872682    -0.28547072    -0.25116268
Ti      1.49278198     7.01476500     7.02837602     0.03738103     0.33069490    -0.48560726
Ti      1.53816602     7.00535300     2.29971500    -0.90746554    -0.20938198    -0.37837499
Ti      1.51423102     2.31362300     6.98933502    -0.39578008    -0.53748520    -0.33846760
Ti      1.47197299     2.27678200     2.43910198    -0.35594340    -0.24153878    -0.87051338
Ti      2.91124901     4.70297798     4.62166302     0.83477194     0.34912226     1.11473536
Ti      2.94769001     4.69327398     9.14466798     0.37017780     0.77440627     1.59197779
Ti      2.97758498     0.00288502     4.69161501    -0.21600154    -0.00578627    -0.03341330
Ti      2.95478199     0.00775599     0.03594802     0.50084414    -0.07837368    -0.76192536
Ti      0.01958400     4.61699001     4.54757900    -0.34527743     0.63858487     0.93998564
Ti      0.02090102     4.61904502     9.19274601    -0.45003578     0.47969758     1.53999161
Ti      5.91312301     9.20715402     4.68756099     0.19245383    -0.41596582     0.45152805
Ti      5.88532601     9.27136698     0.06502800    -0.44096852     0.09429062    -0.97561394
O       4.53031200     5.67723801     5.53156398    -0.24500437    -1.16706530    -0.46149082
O       4.49285101     5.51323403     0.93692801    -0.18282221    -0.45824866    -0.22239665
O       4.38409699     0.73523802     5.65829802     0.29685145     1.35374340    -0.62727021
O       4.42898699     0.92192202     0.86007602    -0.02699042     0.70921105     1.30597948
O       1.53607101     5.58576301     5.48703002    -0.55693560    -0.10500518     0.34083199
O       1.59785700     5.63785500     0.80220800    -0.97886485    -1.03839259     0.61991017
O       1.35256599     0.93014300     5.51991002     1.00608692     0.22450881    -0.35466376
O       1.63497498     1.02232499     0.98616800    -1.16056143    -0.53062524    -0.24900295
O       4.35752700     8.33386402     8.44758400     0.65345202     0.32379945    -0.40596268
O       4.47960898     8.42077398     3.68829098    -0.56980681     0.20480130    -0.30400401
O       4.40389399     3.68246299     8.48479299     1.05002349    -0.38353417    -0.29302102
O       4.47025599     3.64753798     3.76408498    -0.03240774     0.07855520    -0.27545601
O       1.43158602     8.30805102     8.37384199     0.36638465     0.95193870     0.49438244
O       1.50055200     8.40183001     3.62347698    -0.59088112     0.46039913     0.41015024
O       1.56060298     3.77264501     8.26166001    -1.17334882    -0.06910074     1.34702124
O       1.57075302     3.65460498     3.83879899    -0.65370913    -0.07144841    -0.83874918
O       2.98785202     5.95864400     7.93147097     0.14831466     1.83045875    -2.15585846
O       2.95439802     6.06919399     3.23563900     0.01257836    -0.23129858    -0.06872510
O       3.03751398     1.47729497     7.89302101    -1.01660711    -1.17586387     0.51631370
O       2.94243999     1.44349600     3.27015797     0.81606382     0.23406895    -0.28026012
O       5.87987898     6.11436298     7.92607998     0.23486676    -0.79046436    -0.14552141
O       5.88881202     6.04563698     3.17358699     0.71461448    -0.46017159     0.42682025
O       5.85367000     1.38154199     7.93650498     0.88021158     0.33448625    -0.19893532
O       2.88268598     7.86195799     6.05753400     0.16804402     0.07114168    -0.12150344
O       2.97964898     7.84792902     1.38503303    -0.20809797     0.33741422     0.10749272
O       2.95435298     3.27697801     6.23894400     0.48641125     0.45659544    -1.81987172
O       5.90906898     7.97854902     5.97602398     0.39648637    -1.72327636     1.45665878
O       5.88914001     7.85793899     1.30812902     0.42480759    -0.07519323     0.96968163
O       0.05244401     3.23722098     6.08312898    -0.63372831     0.19214812    -0.16314247
O       0.01988701     3.20245001     1.39874200     0.27898896    -0.29456343     0.76738690
