# total energy = -19517.35728602 eV

CRYSTAL
PRIMVEC
        5.17600016     0.00000000     0.00000000
        0.00000000     5.50899976     0.00000000
        0.00000000     0.00000000     9.26300011
PRIMCOORD
23 1
Ti      1.90802700     3.25273799     3.38257602    -1.15071102    -0.17789598     3.28049257
Ti      3.36868797     2.27146498     5.84722800    -0.85663481     0.17106584    -2.71690937
Ti      4.33436301     2.05675697     1.57444599     1.17404019    -1.04617609    -1.27578572
Ti      0.90489299     3.31110100     7.81966302    -0.56337571     0.58847045     1.16280240
Ti      2.01343202     0.27398200     1.27316099    -0.78656837     0.06429123    -0.27069021
Ti      3.24502899     5.19902900     7.88226299     0.00925700     0.68704479     1.02901963
Ti      0.66700199     0.61108299     5.92184401     0.03494413    -0.92079492    -3.68574563
Ti      4.45182803     4.85918301     3.34606999     1.51742143     0.68189306     3.22522257
O       1.55023999     2.04330402     4.84051200     1.17365812     0.15261148    -0.27468597
O       3.55772300     3.62553601     4.56954599    -0.36188393    -0.10751303    -0.78056973
O       0.12359998     2.57782802     0.05372700     0.51493533     0.35344480    -0.37683850
O       3.37670300     0.92715802     0.14784101    -0.17697192    -0.24287549    -0.19164856
O       1.78634798     4.58825701     9.01713398     0.20900505     0.37374701     0.77102013
O       4.34976000     0.77581301     4.72318901    -1.69678705     0.55709578     0.48028868
O       0.98995998     4.86026698     4.32554300     0.78996685    -1.08621770     0.70565752
O       0.11905202     3.18356500     2.69143301     0.32701410     0.79527747    -0.46487542
O       5.01071598     2.12274199     6.69674000    -0.07183948     0.60419404     1.20953582
O       2.62246899     1.80648799     2.33456900    -0.42993797     0.44364222     0.02419460
O       2.64046202     3.70008798     6.93755402    -0.66427663    -1.44809495     0.24925312
O       0.17264201     0.61365902     2.22434101     0.54567802     0.04767238    -2.12668080
O       5.03378298     4.87024102     7.34278901     0.30416650    -0.16726009    -0.40051786
O       2.37103899     0.91676201     6.84159402     0.03230207    -0.08557123     0.80127714
O       2.90658902     4.48334402     2.21277700     0.12659834    -0.23805107    -0.37381617
