# total energy = -4877.04644747 eV

CRYSTAL
PRIMVEC
        5.15611839     0.00000000     0.00000000
       -0.00000669     1.95576877     0.00000000
       -2.57809011    -0.97797722     5.69050136
PRIMCOORD
6 1
Ti     -0.00022031     1.46688193     1.42262509    -0.06143936    -0.05267164   110.85966524
Ti      2.57824195    -0.48909062     4.26787582     0.06143936     0.05267164  -110.85966524
O       0.00005474     0.48892663     0.92693610     0.06032196     0.05371165  -103.70034664
O       2.57796675     0.48886463     4.76356487    -0.06032196    -0.05371165   103.70034664
O      -0.00002235    -0.48898050     3.77218678    -0.00058570     0.00013807     0.11165071
O       2.57804375     1.46677170     1.91831419     0.00058570    -0.00013807    -0.11165071
