# total energy = -19075.88873682 eV

CRYSTAL
PRIMVEC
        7.60600008     0.00000000     0.00000000
        0.00000000     7.60600008     0.00000000
       -1.89786986    -1.89786986     4.85670466
PRIMCOORD
22 1
Ti      3.80614801     6.52320098     1.12356300    -0.82757337     0.91921626     0.62466414
Ti      3.77628299     2.85274301     1.22774001    -0.17447410    -0.21845000    -0.73127215
Ti     -0.00003598     6.71526100     1.18614498     0.76247558     0.34282357    -0.11881406
Ti     -0.05156700     2.94877000     1.20833598     0.44452230    -1.09517980     0.72001971
Ti      5.71416025     2.88166922     3.67605783     0.59426212     0.02937924    -0.65783061
Ti      5.78242723    -0.93790180     3.66239680    -0.29906466    -0.47081082    -0.09154596
Ti      1.94221423     2.85324224     3.63187280    -0.63808685    -0.76027034    -0.77554964
Ti      1.89411022    -1.00237178     3.77632083    -0.15165992     0.83972440    -3.49166403
O       3.61248401     4.75050101     0.68622399     0.71328984    -0.74669414     0.88832470
O       3.71126600     0.88445998     0.66677498     0.34554997     0.32122578     3.57948266
O       0.04555698     4.79682402     0.81745799    -0.20334477    -0.56502610    -0.68699131
O      -0.05683702     0.98186299     0.89095801     0.14331154    -0.76540124    -0.68321024
O       5.75170521     4.73481524     3.90169081     0.23319863     0.54122821     1.24113623
O       5.74319223     0.88393122     3.86574782    -0.23033468     1.11751523     1.18285110
O       1.85488220     4.70520222     4.04632283     0.23666988     0.47990250    -0.83974343
O       1.80462322     0.92773921     4.15877982     0.76401773     0.00895798    -1.41319195
O       3.85066822     3.05156522     3.27268781    -0.33511103    -0.98520390    -0.30780204
O       0.06296521     2.80024323     3.26397380    -0.91867093     0.38319247    -1.36472407
O       5.57895302     6.39400601     1.77267002     1.15131343     0.93925364     0.01048856
O       5.69708301     2.84462300     1.51379598     0.33535425     0.25928582     0.66954765
O       1.96002602     6.66011602     1.63948902    -1.16365781     0.03151994     1.32446160
O       1.94882799     2.94098501     1.54709800    -0.78198769    -0.60618819     0.92136313
