# total energy = -19958.59746263 eV

CRYSTAL
PRIMVEC
        7.60600008     0.00000000     0.00000000
        0.00000000     7.60600008     0.00000000
       -1.89786986    -1.89786986     4.85670466
PRIMCOORD
24 1
Ti      3.85944500     6.60074302     1.21669899     1.40222285     0.14369644    -1.65828656
Ti      3.71355702     2.77033599     1.24659999     1.90541878    -0.79077598    -0.61101184
Ti     -0.03161998     6.83499899     1.28131100    -1.29691839    -2.65908730    -1.51135953
Ti      0.06779798     2.91151000     1.22567902    -1.17878336     3.50805045     0.37398303
Ti      5.68717221     2.95122523     3.55924079    -1.33610176     1.40717634     0.31228991
Ti      5.72191825    -0.75010679     3.72034282    -1.73420047    -1.75901214    -1.82879139
Ti      1.83542721     2.63148623     3.59090982     1.23535793     1.06463122     2.18122189
Ti      1.92642321    -1.03052279     3.52243783     1.51964466    -1.30950318     2.19264325
O       4.03870802     4.52249197     0.77032301    -2.00378871     1.13751380    -0.84107603
O       4.00022398     0.83781999     0.80392200    -0.95735756     0.32197988    -0.68210647
O      -0.06914701     4.85591799     1.04123202     0.97686555    -1.64821786    -1.21645312
O      -0.17751701     1.10904000     0.95894802     0.60831192    -1.12691339    -1.50160682
O       5.29159221     4.74706120     4.14588584     1.94864084     0.50013503     0.09933409
O       5.53229023     1.06474421     3.96757083     1.08144264    -0.22479935     1.23337047
O       2.27470222     4.56669224     4.10630380    -2.01781588     1.25845879    -0.14182133
O       2.05207122     0.77066824     3.86561579    -1.35743730     0.49352138     0.94421459
O       3.55238122     2.69915122     3.18296480     3.42757232     0.09553272    -0.61783632
O       3.93793320    -0.86044179     3.16335879    -0.42650169    -0.31750642     0.65578556
O      -0.01586479     2.99205623     3.17899783    -0.71067940    -0.26648491     0.21556497
O       0.03357021    -0.91437580     3.15747381    -0.86085862     0.02699274     1.93947665
O       5.71811198     6.59526900     1.60657499     1.15753935     0.49336840     1.38225488
O       5.52937298     2.93273800     1.70379501     2.62555676    -0.54179334     1.18941230
O       1.98116400     6.59554999     1.68397198    -0.68562451    -0.01687698    -1.57202705
O       1.93201698     2.67970602     1.52201098    -3.32250595     0.20991394    -0.53717513
