# total energy = -39040.39377231 eV

CRYSTAL
PRIMVEC
        7.60629642    -0.00000847    -0.00005503
       -0.00000847     7.60629642    -0.00005503
       -3.80314186    -3.80314186     9.70738094
PRIMCOORD
46 1
Ti      1.90152746     4.71543487     6.06401809    -0.00008536    -0.01246806     0.00086646
Ti      3.83309279     6.66083017     1.18875170    -0.01139770     0.01622135     0.01467818
Ti      1.90152400     0.96882921     5.92312266     0.00009025    -0.01642781    -0.02411850
Ti      3.79791846     2.84502080     1.24662614    -0.00264772    -0.01080018     0.00672961
Ti     -1.90166515     4.79366884     6.06847898     0.00008228    -0.00034427    -0.01315557
Ti     -0.03006407     6.66077136     1.18879386     0.01137739     0.01618022     0.01480185
Ti     -1.90171117     0.95399986     6.13166371     0.00018409     0.01921746     0.01650623
Ti      0.00498353     2.84499195     1.24668148     0.00256339    -0.01083540     0.00677460
Ti      3.88684541     0.94665915     8.54302929     0.01118867    -0.00284518     0.02833871
Ti      5.70480387     2.83205133     3.66765221     0.00000129    -0.01100304    -0.01769434
Ti      3.78420496    -2.83538943     8.48732466     0.00581429    -0.00149278    -0.01950285
Ti      5.70474133    -0.94031023     3.64443929     0.00003497    -0.00123027     0.01251768
Ti     -0.08364933     0.94674257     8.54301930    -0.01153963    -0.00286961     0.02835002
Ti      1.90163971     2.91111452     3.68909992     0.00008922    -0.00645887     0.00175632
Ti      0.01922782    -2.83531269     8.48727637    -0.00586726    -0.00143545    -0.01920949
Ti      1.90155892    -0.96999501     3.48375521     0.00012804    -0.00330567     0.03591395
O       1.90163969     2.85035943     5.64728685    -0.00008330    -0.01366285     0.00124596
O       3.85032125     4.74877713     0.80517893     0.00967224     0.00273565     0.00163008
O       3.77202536     0.95397244     0.76342540    -0.00637608     0.00485604    -0.02278538
O      -1.90153143     2.82342659     5.73137707    -0.00003291     0.01921360    -0.03337884
O      -0.04728198     4.74875104     0.80521593    -0.00964035     0.00274080     0.00166710
O      -1.90154394    -0.93591102     5.66884720    -0.00000591    -0.00527693    -0.00146167
O       0.03115467     0.95394603     0.76348856     0.00628095     0.00485116    -0.02283835
O       3.65312988     2.82725995     8.85812943    -0.00122976     0.00078856     0.01305144
O       5.70471295     4.75058241     4.09511353    -0.00005425    -0.00535407     0.00486067
O       3.70053102    -0.92932936     8.91264944    -0.00092148     0.00743589     0.02638518
O       5.70469601     0.95051752     4.09855260    -0.00000643     0.00730734     0.02314405
O       0.15012006     2.82728908     8.85813999     0.00129481     0.00080193     0.01300696
O       1.90146659     4.83560926     4.06955201     0.00004474    -0.00259013     0.01412667
O       0.10273684    -0.92928610     8.91267979     0.00103281     0.00743846     0.02632245
O       1.90151647     0.87149509     4.03857698    -0.00000103    -0.01377443    -0.01306327
O       3.78998356     2.85400945     3.25983257    -0.00457528     0.00311772    -0.02582828
O       1.90164083    -2.80998425     8.06025663     0.00001697     0.00655657     0.01019751
O       3.81832110    -0.95230968     3.18019756    -0.00378981    -0.00482031    -0.00620922
O      -1.90155430     0.99778452     8.11343931    -0.00003677     0.01506590    -0.01758430
O       0.01312427     2.85394620     3.25985886     0.00450920     0.00320488    -0.02581209
O      -1.90154729    -2.87972851     8.08148244     0.00009539     0.00796502    -0.00111586
O      -0.01521646    -0.95230202     3.18023657     0.00387311    -0.00485219    -0.00617939
O       3.78441793     4.86831233     6.46123492    -0.00051911    -0.00701603     0.02212769
O       5.70469507     6.69688481     1.62676023    -0.00001080     0.00396310    -0.00020517
O       3.66618247     0.78158787     6.54422221    -0.00427626    -0.00113951    -0.00669953
O       5.70469959     2.80956609     1.69428437    -0.00014630    -0.00115571    -0.02020348
O       0.01876934     4.86831879     6.46127732     0.00042835    -0.00707542     0.02223979
O       1.90155399     6.63030814     1.52836605     0.00004499    -0.01113597    -0.01741255
O       0.13701988     0.78155605     6.54434900     0.00441356    -0.00111586    -0.00691576
O       1.90154404     2.88094189     1.63137498    -0.00001800     0.01082486    -0.02586582
