# total energy = -19909.34146270 eV

CRYSTAL
PRIMVEC
        8.15181043     0.00000000     0.00000000
        0.00002670     3.71828194     0.00000000
        0.00000000     0.00000000    12.40641834
PRIMCOORD
24 1
Ti      2.95465489     2.20345045     4.60269272     0.05242944    -0.12930648     2.57034435
Ti      5.19718188     1.51483155     7.80372580    -0.05242944     0.12930648    -2.57034435
Ti      7.03042058     1.51483282     1.60046692     0.05250915     0.12930417    -2.57014895
Ti      1.12141619     2.20344930    10.80595172    -0.05250915    -0.12930417     2.57014895
Ti      2.95464172     0.34430954     1.60051669     0.05242944    -0.12930648    -2.57034435
Ti      5.19719505     3.37397252    10.80590195    -0.05242944     0.12930648     2.57034435
Ti      1.12140302     0.34430815     7.80367603    -0.05250915    -0.12930417    -2.57014895
Ti      7.03043375     3.37397390     4.60274249     0.05250915     0.12930417     2.57014895
O       2.58010878     1.30927027     6.33090036     2.23470240     0.69754517    -1.69615558
O       5.57172800     2.40901167     6.07551816    -2.23470240    -0.69754517     1.69615558
O       1.49586271     1.30928527     0.12773102    -2.23462012     0.69761331    -1.69670400
O       6.65597412     2.40899673    12.27868715     2.23462012    -0.69761331     1.69670400
O       5.57171489     0.54987070     0.12769077    -2.23470240    -0.69754517    -1.69615558
O       2.58012189     3.16841130    12.27872739     2.23470240     0.69754517     1.69615558
O       6.65596101     0.54985570     6.33094061     2.23462012    -0.69761331    -1.69670400
O       1.49587570     3.16842630     6.07547792    -2.23462012     0.69761331     1.69670400
O       0.29619024     2.26166984     3.35128314    -1.65083165     0.44739397     0.17096660
O       7.85564653     1.45661210     9.05513539     1.65083165    -0.44739397    -0.17096660
O       4.37210583     1.45657746     2.85196557    -1.65105636    -0.44727853    -0.17091646
O       3.77973094     2.26170454     9.55445278     1.65105636     0.44727853     0.17091646
O       0.29617713     0.40252887     2.85192598    -1.65083165     0.44739397    -0.17096660
O       7.85565964     3.31575313     9.55449237     1.65083165    -0.44739397     0.17096660
O       3.77971783     0.40256351     9.05517492     1.65105636     0.44727853    -0.17091646
O       4.37211894     3.31571849     3.35124355    -1.65105636    -0.44727853     0.17091646
