# total energy = -4988.79894109 eV

CRYSTAL
PRIMVEC
        3.86094351     0.00000000     0.00000000
        1.31116790     3.63149053     0.00000000
       -2.58609093    -1.81577000     5.00700211
PRIMCOORD
6 1
Ti      0.98326462     2.72375719     1.25175058     0.00055690    -0.00055690     0.00000000
Ti      1.60275520    -0.90803713     3.75525164    -0.00055690     0.00055690     0.00000000
O       0.32783220     0.90786763     0.81559978    -0.00034556    -0.00037487    -1.32080447
O       2.25818743     0.90785230     4.19140254     0.00034556     0.00037487     1.32080447
O      -0.32780088    -0.90784570     3.31910084    -0.00037487    -0.00034556    -1.32080447
O       2.91382045     2.72356559     1.68790149     0.00037487     0.00034556     1.32080447
