# total energy = -19519.27898243 eV

CRYSTAL
PRIMVEC
        7.60600008     0.00000000     0.00000000
        0.00000000     7.60600008     0.00000000
       -1.89786986    -1.89786986     4.85670466
PRIMCOORD
23 1
Ti      3.79281401     6.66265501     1.25217900     0.32932450    -0.62396480     0.35782082
Ti      3.70901202     2.75734400     1.15973602     0.45946813     0.83601122     2.04110134
Ti      0.01926099     6.69305899     1.17851203    -0.60033198     0.29168199    -0.13766257
Ti     -0.02455901     2.90446099     1.07023501    -0.22029297    -0.43724505     0.15341547
Ti      5.65238124     2.93824424     3.60411084    -1.31081187    -0.37985852    -0.36357520
Ti      5.74268925    -0.90991478     3.57151881    -0.18300888     0.21045464     0.77363134
Ti      1.95760424     2.78720923     3.76906279     1.14279459     0.19176143    -0.64741327
Ti      1.90130724    -1.02989175     3.64103783     0.24955188     0.04194859     0.09256335
O       3.87035298     4.66121500     0.84035602    -0.76998372     0.53000792     0.42813897
O       3.90651299     0.92534802     0.86571498    -0.48374244    -0.39474701    -0.26049758
O      -0.10252899     4.74508599     0.79093102     0.69788765     1.62031110    -0.06184662
O      -0.14154100     1.01601201     0.74006798     0.55535206    -0.83788375    -0.39838744
O       5.77866420     4.76941222     4.09555182     0.47522849     0.23884889    -0.67188581
O       5.77181622     1.07229324     3.97489682     0.48223475    -1.22881962    -0.35618405
O       1.93138621     4.69114521     4.19331584    -0.68710418     0.42048505    -0.97649557
O       1.95925623     0.89037824     4.09865381    -0.69176636    -0.33656730    -0.29186531
O       3.76938824     2.78991824     3.33676583     0.41973480     0.26046493    -1.18276343
O       3.78078222    -1.08561776     3.26483683     0.23646470     0.34037665    -0.55316971
O       0.02731724    -0.90446478     3.24467883    -0.04886898    -0.26668803     0.13761706
O       5.74322398     6.70539200     1.62521102    -0.68061111    -0.24275028     0.32620961
O       5.76928199     2.90519400     1.58394599    -0.56284349    -0.08822230     1.23994427
O       1.86098499     6.70235801     1.60813902     0.86386964    -0.19651052     0.41143502
O       1.77870597     2.81028702     1.73106102     0.32745479     0.05090426    -0.06013067
