# total energy = -19074.56686910 eV

CRYSTAL
PRIMVEC
        5.17600016     0.00000000     0.00000000
        0.00000000     5.50899976     0.00000000
        0.00000000     0.00000000     9.26300011
PRIMCOORD
22 1
Ti      1.87072598     3.30771898     3.22555997    -0.43722140     0.06945324     2.10232139
Ti      3.42809198     2.22377098     6.01059899     0.48718798     0.26410176    -1.51537971
Ti      4.51758999     2.18922999     1.31126799    -0.82229566    -0.55353686    -2.63080438
Ti      0.69095298     3.30942399     8.07587001     1.02207328     0.57600420     1.48227700
Ti      1.86954899     0.57976898     1.33413300    -0.33354342    -1.30808341    -2.93960144
Ti      3.24893299     4.95668900     8.02108100    -0.03373494     1.05337930     1.70788625
Ti      0.64913798     0.47917699     5.92931102    -0.22287822    -0.13616439    -1.53499492
Ti      4.46435100     4.89395599     3.41124197    -0.67224217     0.88124876     1.75455642
O       3.32793101     3.47871498     4.49810902    -0.14142718    -0.15597783     0.51568378
O       0.84256200     2.00160702     0.14820397     0.36103804    -0.64722430    -0.17296614
O       4.40717901     3.85324198     9.08628200    -0.52234963    -0.26657362    -0.24409343
O       3.40402400     0.83888702     0.25125002     0.63054040     0.49317659    -1.65777671
O       1.74213199     4.74023201     9.06733999    -1.52830645     0.03646700     0.14930556
O       4.41523103     0.98630898     4.64315598    -0.10378982    -1.02958476     0.25123338
O       0.90607898     4.66664801     4.37616901    -0.11894725     0.22039839     1.28006995
O       0.06475801     3.44596902     2.44374001     0.52000864    -0.36754499     0.23635517
O       0.02552899     2.29522398     6.59458900     0.55427528    -0.54499617     0.36589794
O       2.69611501     1.99897500     2.13044999     0.17770006     0.64339361     1.86051907
O       2.52575502     3.36002799     7.31019598     0.01209447    -0.84465630    -1.63100998
O       0.00632499     0.62268599     2.03196502     0.71397967    -0.83947372     1.26797882
O       2.50751301     0.65393301     6.55871502    -0.83913074    -0.13401597     0.23990535
O       2.62462401     4.55724902     2.31288199     1.29696905     2.59020973    -0.88736336
