# total energy = -4990.03456351 eV

CRYSTAL
PRIMVEC
        3.86033687     0.00000000     0.00000000
        0.76441511     3.78389618     0.00000000
       -2.31241116    -1.89197686     4.95171653
PRIMCOORD
6 1
Ti      0.57317827     2.83806683     1.23792927     0.00001208    -0.00001208     0.00000000
Ti      1.73916256    -0.94614752     3.71378743    -0.00001208     0.00001208     0.00000000
O       0.19114423     0.94596851     0.80659422    -0.00037127    -0.00038592    -0.54977559
O       2.12119648     0.94595071     4.14512253     0.00037127     0.00038592     0.54977559
O      -0.19111889    -0.94594778     3.28245238    -0.00038592    -0.00037127    -0.54977559
O       2.50345948     2.83786691     1.66926431     0.00038592     0.00037127     0.54977559
