# total energy = -19517.16339407 eV

CRYSTAL
PRIMVEC
        5.17600016     0.00000000     0.00000000
        0.00000000     5.50899976     0.00000000
        0.00000000     0.00000000     9.26300011
PRIMCOORD
23 1
Ti      1.95012501     3.27796302     3.39597299    -1.61774488    -1.58341447     2.31233251
Ti      3.41132400     2.21159498     5.91990002    -0.95891719     0.80458949    -2.81134243
Ti      4.24886998     2.10400001     1.48825699     0.53455363     0.13376735     0.24794005
Ti      0.79775100     3.34668801     7.85326498     1.01733756     0.77653798     0.99959411
Ti      1.85806499     0.18540799     1.33139800    -0.23351719     0.97478913    -1.16795593
Ti      3.38881798     5.18398402     7.94239901    -0.28943510    -0.73812568     0.68109114
Ti      0.76064203     0.56316800     5.79961502     0.17513024     0.42081132    -3.28959222
Ti      4.50761902     4.87898202     3.39726699     1.09505021    -0.04748675     2.62810138
O       1.57821998     2.04691899     4.76726201     0.75755114    -0.82000661     0.95597816
O       3.43577098     3.60682202     4.46387702     1.68670601    -0.18659274     1.45786308
O       4.89672702     3.07466699     0.10696498     0.48479505     0.56447305    -1.19197852
O       3.40931402     0.88445199     0.16146097     0.14538745    -0.65922672    -0.47190173
O       1.72273199     4.77388001     8.85349100     0.19758884     0.55849472     2.37048446
O       4.30521201     0.80901401     4.79379898    -0.01898503    -0.41771443    -0.50684227
O       1.12234499     4.77793499     4.39209201    -1.01813872     0.78497120     0.60237447
O       0.15576100     3.25901699     2.74604299    -0.74983758     0.04077463    -1.52465111
O       5.07983003     2.14209300     6.76010199     0.25759609    -0.77445795     0.62111499
O       2.57723698     1.73944901     2.24159298    -0.78309635     1.18332084     0.13320350
O       2.70440399     3.47280201     7.16269602    -0.41901027    -0.79998233     0.23430626
O       0.04922798     0.70460501     2.18317102     1.35097303    -0.98574589    -1.34598175
O       0.04514300     4.79403499     7.05435000    -1.53655301     0.49560320     0.24635780
O       2.57116102     0.65723100     6.67767999    -0.70454681     0.30899992     0.44201985
O       2.86838502     4.60210801     2.35288901     0.62711286    -0.03437952    -1.62251531
