# total energy = -39035.09719434 eV

CRYSTAL
PRIMVEC
        5.93200024     0.00000000     0.00000000
        0.00000000     9.29399984     0.00000000
        0.00000000     0.00000000     9.29399984
PRIMCOORD
46 1
Ti      4.48030401     7.12365100     6.88915398    -0.76684132    -0.59659617     1.11294510
Ti      4.44971502     6.77753600     2.46924800    -0.48692213    -0.07584603    -0.90353072
Ti      4.43835300     2.16729401     7.18026402    -0.41427969     0.53032545    -1.25981968
Ti      4.19323101     2.68520401     2.00491798     0.97813542    -0.52628136     0.86550692
Ti      1.49309499     6.92160298     7.09974801     0.09214066     0.07794302    -0.45314939
Ti      1.44009302     7.12329301     2.21161498     0.98048695    -0.34237825     0.15485580
Ti      1.44190402     2.44751701     6.78280200     0.73242452    -0.00605341    -0.69408987
Ti      1.31931699     1.97618101     2.75901900    -0.55535412     1.27387256    -0.78827507
Ti      3.00322499     4.63485398     4.57665999    -0.60331421     0.15121743     0.88587701
Ti      2.96869702     4.70409799     9.05096698     0.54227748     0.24312720     0.94405852
Ti      3.08296703     9.23488799     4.59223902    -1.17077154    -0.05004397     0.15402662
Ti      2.98117899     0.08705400     0.11462201     0.30233588    -1.36556610    -0.67246045
Ti      0.00309299     4.59996998     4.55601699     0.55084877     0.40329568     0.97634465
Ti      0.09082401     4.72750201     9.25608101    -0.64464908     0.76218376     0.49333240
Ti      5.93109799     9.13865102     4.82767299     1.30303325     0.49102329    -0.83449272
Ti      0.05096199     0.05976501     0.09558799    -0.45854253    -0.78684990    -1.00502506
O       4.41060300     5.52712498     5.43125002     0.58058076     0.94650339     0.94896136
O       4.35738603     5.52745598     0.91893302     0.36283061    -1.23206306     0.18605204
O       4.51705701     0.67704398     5.70761099    -0.46621779     0.61653457    -0.66607177
O       4.36073000     1.14595000     0.78848199     0.90490395     0.05525508     0.06851607
O       1.43254298     5.53320798     5.44727600     0.05492933     0.02189424     1.29488748
O       1.54462299     5.73605898     0.81434600    -0.17659757    -1.74449928    -0.61846855
O       1.60203798     0.99547099     5.31762799    -1.18440122     0.07187779    -0.31183636
O       1.52396402     0.93662198     0.98142599    -0.85790648     0.17511173     1.03212167
O       4.49097598     8.38485401     8.49696301    -0.21354768     0.44985632    -0.97483001
O       4.51332800     8.19702000     3.79688900     0.46089355     1.25293606     0.66568714
O       4.52481300     3.72833001     8.36141802    -0.46245318    -0.42690021     1.01720746
O       4.45276599     3.76550699     3.64126601    -0.60031810    -0.15838901    -0.73625932
O       1.49079302     8.39492499     8.48344201    -0.27764685    -0.31128358    -0.09694065
O       1.49056399     8.30765102     3.79605300     0.07071256     0.97233218    -0.71354901
O       1.43354599     3.98623100     8.09524303     0.13253348    -0.96717018     1.13562558
O       1.45578799     3.61300699     3.81648099     0.05706103    -0.87123997    -0.46343997
O       2.97475499     6.06221399     7.89715600     1.09216029     1.22215454    -1.35216911
O       2.85631798     6.03550398     3.25976901     0.73081012     0.02383671    -0.71196547
O       2.79901798     1.45738198     7.85967602     0.96423475    -0.25077804     0.46133733
O       3.09167601     1.55670400     3.11170902     0.67354546    -0.86547967     0.23487782
O       5.82013900     6.11648598     7.98561602     0.26870583     0.18903323    -0.74171134
O       0.19880099     5.98581799     3.11184597    -1.47288605    -0.23870568     0.38924408
O       0.18333198     1.37367799     7.78489602    -0.91899206    -0.10392017     0.88370391
O       2.93221099     7.86743100     6.00752299    -0.11138692    -0.19640202     0.70672942
O       3.12862200     7.97209602     1.52873402    -0.95272829    -0.04161641    -0.15296527
O       3.13747302     3.10611102     5.99524899    -0.87219205     0.29923692     0.38036683
O       0.11772903     7.88656198     6.12017901    -0.11003940    -0.59616808     0.57557997
O       5.80762702     7.84086699     1.46080401     0.70344997     1.17420937    -0.38781197
O       5.77271000     3.14309400     6.02335502     0.78066717     0.11797974    -0.20181779
O       0.05097702     3.04425999     1.69125499     0.45828645     0.23248978    -0.82716482
