# total energy = -4986.09361239 eV

CRYSTAL
PRIMVEC
        3.89394177     0.00000000     0.00000000
        0.00000000     3.66073352     0.00000000
        0.00000000    -0.00007210     5.20637649
PRIMCOORD
6 1
Ti      1.94697072     1.83033082     2.60318836     0.00000000     0.00000000     0.00000000
Ti      0.00000000     0.00000000     0.00000000     0.00000000     0.00000000     0.00000000
O       1.94697072     0.71340904     1.01464615     0.00000000     0.09461200     0.95221869
O       1.94697072     2.94725260     4.19173062     0.00000000    -0.09461200    -0.95221869
O       0.00000000     1.11689299     3.61783553     0.00000000    -0.09475907     0.95437019
O       0.00000000     2.54376865     1.58854119     0.00000000     0.09475907    -0.95437019
