# total energy = -4988.02385196 eV

CRYSTAL
PRIMVEC
        3.91724820     0.00000000     0.00000000
        1.50662696     3.61592432     0.00000000
       -2.71197394    -1.80798640     5.10645814
PRIMCOORD
6 1
Ti      1.12986433     2.71208244     1.27661427     0.00046460    -0.00046460    -0.00000000
Ti      1.58203700    -0.90414450     3.82984318    -0.00046460     0.00046460     0.00000000
O       0.37669746     0.90397634     0.83180018    -0.00040726    -0.00049648    -1.73587040
O       2.33520368     0.90396153     4.27465732     0.00040726     0.00049648     1.73587040
O      -0.37666363    -0.90395379     3.38502914    -0.00049648    -0.00040726    -1.73587040
O       3.08856472     2.71189162     1.72142841     0.00049648     0.00040726     1.73587040
