# total energy = -19961.26135613 eV

CRYSTAL
PRIMVEC
        7.60600008     0.00000000     0.00000000
        0.00000000     7.60600008     0.00000000
       -1.89786986    -1.89786986     4.85670466
PRIMCOORD
24 1
Ti      3.75997301     6.61604100     1.27789098     0.25050704     0.28274818    -0.94926449
Ti      3.80223300     2.88285801     1.24541998    -0.23281039    -0.10824708    -1.24752234
Ti     -0.01005701     6.59939801     1.16772702    -0.11667362     1.57551784     1.37360929
Ti      0.03752899     2.92646698     1.14231599    -0.68419677    -1.18383455     1.02096642
Ti      5.74175922     2.87745723     3.60523481     1.01407303     0.23695835    -0.11687185
Ti      5.68252021    -0.97767079     3.65869579     1.89721336     0.14326295     0.19431711
Ti      1.89733725     2.88009624     3.58585983    -0.98428190    -0.19734844     1.25941087
Ti      1.91517020    -0.97060479     3.62408781    -1.76713811     0.01761309     0.94053380
O       3.67606000     4.73961901     0.77073598     0.19020643    -0.66901132     0.39385407
O       3.61730598     0.85906000     0.82532902     0.76141114     1.57860856     0.38879337
O       0.06203598     4.80735999     0.80376097    -0.30016509    -0.71468647    -0.84949614
O       0.13446299     1.00557500     0.73564401    -0.90808106    -0.88870291     0.49115133
O       5.96193125     4.78740620     4.06334281    -1.07314595    -1.30256531    -0.07309983
O       5.87661623     0.95523320     4.15109284    -0.85315688     0.97677634    -2.02340083
O       1.71924820     4.73386024     4.18496981     0.70564390    -0.36163891    -1.14895984
O       1.82465825     0.95050622     4.03838581     0.59633263    -0.50269174     0.43453485
O       3.79990425     2.92967221     3.21979782     0.11318669    -0.26473348     0.13552136
O       3.81628424    -1.10241777     3.27007982    -0.29072503     0.24976502     0.20590790
O      -0.01547976     2.76325824     3.16445683    -0.90737144     0.18934279     0.43440964
O      -0.04277980    -1.07260678     3.20153882     0.55342785     0.79017768    -0.32457156
O       5.72929800     6.56725102     1.59479402    -0.89791286     0.50949462    -0.11301237
O       5.65833998     3.01158398     1.58928200     0.11462882    -0.55562640     0.19113228
O       1.85899502     6.59717102     1.72122902     0.65062998     0.03210435    -0.09411167
O       1.79607299     2.91775201     1.69202198     2.16839825     0.16671656    -0.52383135
