# total energy = -19923.62703544 eV

CRYSTAL
PRIMVEC
        6.20702826     0.00000000     0.00000000
        2.82955293     5.96949850     0.00000000
        0.00000000     0.00000000    11.41619185
PRIMCOORD
24 1
Ti      3.92653959     3.53751925     4.23532572     0.32718097    -2.66443159     0.63657118
Ti      5.11004140     2.43197917     7.18086619    -0.32718097     2.66443159    -0.63657118
Ti      6.50592424     2.43198119     1.47272463    -1.20390433    -1.16840664     0.51980346
Ti      2.53065686     3.53751746     9.94346747     1.20390433     1.16840664    -0.51980346
Ti      2.51176327     0.55277009     1.47277039     0.32718097    -2.66443159    -0.63657118
Ti      6.52481775     5.41672851     9.94342171    -0.32718097     2.66443159     0.63657118
Ti      1.11588038     0.55276789     7.18082043     1.20390433     1.16840664     0.51980346
Ti      7.92070070     5.41673070     4.23537154    -1.20390433    -1.16840664    -0.51980346
O       2.96089726     2.10196188     5.82559532     1.78248041     2.11472156    -0.96339837
O       6.07568372     3.86753655     5.59059665    -1.78248041    -2.11472156     0.96339837
O       2.13533187     2.10198599     0.11753611     0.17749206    -1.08431431     1.66012207
O       6.90124920     3.86751254    11.29865555    -0.17749206     1.08431431    -1.66012207
O       4.66090738     0.88278727     0.11749903    -1.78248041    -2.11472156    -0.96339837
O       4.37567362     5.08671122    11.29869258     1.78248041     2.11472156     0.96339837
O       5.48647285     0.88276320     5.82563235    -0.17749206     1.08431431     1.66012207
O       3.55010809     5.08673530     5.59055957     0.17749206    -1.08431431    -1.66012207
O       1.94661014     3.63098742     3.08379824     0.66397221     2.84124437     2.66174196
O       7.08997079     2.33851102     8.33239374    -0.66397221    -2.84124437    -2.66174196
O       4.43747410     2.33845547     2.62433403     0.83098959     1.96379930     1.49362406
O       4.59910688     3.63104296     8.79185769    -0.83098959    -1.96379930    -1.49362406
O       0.53183378     0.64623808     2.62429757     0.66397221     2.84124437    -2.66174196
O       8.50474714     5.32326036     8.79189416    -0.66397221    -2.84124437     2.66174196
O       3.18433052     0.64629362     8.33243008    -0.83098959    -1.96379930     1.49362406
O       5.85225046     5.32320481     3.08376177     0.83098959     1.96379930    -1.49362406
