# total energy = -19957.46135936 eV

CRYSTAL
PRIMVEC
        7.60600008     0.00000000     0.00000000
        0.00000000     7.60600008     0.00000000
       -1.89786986    -1.89786986     4.85670466
PRIMCOORD
24 1
Ti      3.84872699     6.63470699     1.12652100     0.77447929    -1.15956950    -0.65591283
Ti      3.80764098     2.67075102     1.19787901    -0.58900241     0.80567553     1.07042649
Ti     -0.06162698     6.85646702     1.22945502    -0.76709380    -3.54299767    -0.51253572
Ti     -0.02893001     2.93457398     1.22513900    -0.03961840     2.63532592     2.26088549
Ti      5.58465322     2.99257323     3.65931381    -1.10584242     0.52494027     0.89292903
Ti      5.80172321    -0.77085176     3.78921783    -2.48741596    -1.06798497    -1.83318489
Ti      1.79563621     2.60936323     3.65294379     1.73828878     1.66922121     1.61105615
Ti      1.98310222    -0.99064479     3.55192682     1.90898361    -2.00692597    -0.54538543
O       3.97343899     4.46872598     0.69047201    -1.75759160     1.42760633    -0.33490431
O       4.08653300     0.85443901     0.61026800    -1.25596482    -0.61214338     1.27963158
O      -0.10412002     4.86067402     0.75780500     0.59224509    -0.81868197     0.97742811
O      -0.06826699     1.03212302     0.89410799     0.37954819     0.26411358    -0.61181659
O       5.23106624     4.77039924     4.24574180     1.87926139     1.74004922    -1.98786792
O       5.57277324     1.05476721     4.30480782     0.16091075    -1.35536576    -4.07548079
O       2.46998524     4.49915023     4.16007880    -3.20141337     1.51968580    -0.84238035
O       2.08154623     0.72515725     4.09469784    -1.10598332     1.87873946    -1.73038264
O       3.66013023     2.75806823     3.32393281     1.30465253    -1.37494369    -2.39305284
O       3.88997022    -0.86375475     3.17017184     0.38395943     0.14289143     0.00840494
O      -0.08009976     2.95469721     3.32739283     0.55240738    -0.20438992    -0.60035564
O       0.02180221    -0.90086278     3.13531684    -0.87305620    -0.08338682     1.94045496
O       5.64676598     6.62514698     1.48965603     2.24411109     0.33181178     2.59233964
O       5.57503399     2.97298299     1.62479498     1.74415913    -0.87367686     1.46564016
O       1.96860599     6.51734601     1.54656200    -0.73864993     0.59670390     0.12104784
O       1.83362399     2.81336598     1.27617201     0.25862556    -0.43669792     1.90301582
