# total energy = -19516.51472473 eV

CRYSTAL
PRIMVEC
        5.17600016     0.00000000     0.00000000
        0.00000000     5.50899976     0.00000000
        0.00000000     0.00000000     9.26300011
PRIMCOORD
23 1
Ti      1.77579402     3.26916799     3.48480100    -0.19558903    -1.23642160     2.53062979
Ti      3.38404703     2.28924502     5.80661503    -0.54307555     0.46916402    -2.53893677
Ti      4.39508398     2.05138498     1.59334900    -0.66581492    -1.65426459    -1.73262078
Ti      0.99491700     3.24493702     7.82077202    -0.46450595     0.10899373     1.44738378
Ti      2.01882999     0.26203101     1.31947998    -1.00768127     1.03151592    -2.56713227
Ti      3.36707203     5.36654800     7.76422398    -0.21714723    -0.79960952     2.38175387
Ti      0.65214301     0.50789199     6.02080799    -0.10343372    -0.06254031    -3.82519434
Ti      4.42130302     4.92457699     3.28724500     0.50067342     0.37433810     3.84660907
O       1.53182701     2.13486899     4.89037298     0.16895496    -0.82814107    -0.10330439
O       3.34159399     3.63956301     4.49259298     1.74041997     0.54217875     0.28160918
O       0.16684599     2.50073902     0.11001701     1.52300843     1.26438519    -0.81076529
O       3.49064200     0.92985000     0.24796902    -0.41220173    -0.64668668    -1.40697065
O       1.92054098     4.85987200     8.82779198    -1.59818058    -0.70813761     1.38328075
O       4.33428702     0.82913402     4.65429399    -1.24003683     0.30016226     0.25175454
O       0.89366898     4.77989300     4.41745600     0.21447045    -0.11627253     0.42349299
O       0.09756298     3.25535302     2.65817798    -0.87834213     0.62524984    -0.35864614
O       4.96009198     2.02007600     6.79311800     0.46907918    -0.01893670     1.07870905
O       2.48315297     1.79539802     2.25161999     0.70729660     1.31678994     0.66883777
O       2.77167898     3.49446801     7.17946697    -0.04566152     0.20214201    -0.29644882
O       0.11966597     0.41420402     1.98494000     0.99363224     0.60116759    -0.77189096
O       5.07934398     4.67577901     7.20644798     0.05176173     0.53959402    -0.03423245
O       2.35760800     1.02141100     6.80018299    -0.50473268    -0.74598683     0.39371214
O       2.71572997     4.50376698     2.29511698     1.50710564    -0.55868447    -0.24163005
