# total energy = -19073.44287572 eV

CRYSTAL
PRIMVEC
        5.93400000     0.00000000     0.00000000
        0.00000000     9.29699974     0.00000000
        0.00000000     0.00000000     4.64899994
PRIMCOORD
22 1
Ti      4.39048702     6.76373898     2.48746598    -0.01060118     0.33285411    -0.67818347
Ti      4.38728401     2.43682800     2.12657302     1.19177541     0.31809674    -0.36358806
Ti      1.45901000     7.27771799     2.53589501     0.37971865     0.00019078    -0.22689505
Ti      1.64154498     2.16603298     2.12862602    -1.54761442     0.92868229     1.50579849
Ti      3.04725799     4.55828700     4.44232998    -0.55887242    -0.09745462    -0.58151459
Ti      3.01189598     0.06204699     4.63914502     1.10396140    -0.41102647    -0.13163616
Ti      5.76908202     4.50949501     4.47301300     1.12088004    -0.73099498    -0.08514160
Ti      5.86518600     0.00952800     0.28862301    -0.55255521    -1.15879611     0.64155810
O       4.34921299     5.33178698     0.96293702     0.63591838     0.64964370     0.51312322
O       4.35834998     0.72909999     1.23065001     0.86568304     1.01249746    -0.88270632
O       1.59319199     0.56445898     1.24905199    -0.59290484     0.83929503    -0.23287904
O       4.58124801     8.45333499     3.87883897    -0.46261516     0.62932016    -0.22435917
O       4.42846501     4.25519999     3.21739001    -0.58070212    -2.13566192    -0.19531470
O       1.49436602     8.56550898     3.74574100    -0.69493525     1.06192719     0.71143582
O       1.50604602     3.99614598     3.49473498    -0.30241121    -0.43685784     0.51793504
O       2.96282903     6.34214399     3.62202899    -1.18172290    -0.49929633    -0.44244202
O       3.15330400     1.64537500     3.29095099    -0.55046234    -0.87482486     1.58194560
O       0.04566498     6.21408098     3.42228701     1.07394299    -0.18894684     0.06045977
O       3.09500898     7.83606201     1.58358398    -0.95723132    -0.92124872    -0.50220657
O       2.89765000     2.91554799     1.05684597     0.24929605     2.19292118    -0.89234231
O       5.83905798     7.89493499     1.56094700     0.79879885    -0.81419205    -0.34680338
O       0.03181900     2.98270302     1.08340602     0.57265405     0.30387134     0.25375666
