# total energy = -19514.39146725 eV

CRYSTAL
PRIMVEC
        5.17600016     0.00000000     0.00000000
        0.00000000     5.50899976     0.00000000
        0.00000000     0.00000000     9.26300011
PRIMCOORD
23 1
Ti      2.00139101     3.12739902     3.35184500    -0.32867915     1.34590281     3.25427142
Ti      3.21398200     2.24728502     5.97346599     2.43093909     0.30686668    -3.70382589
Ti      4.38227699     2.19042699     1.61192698     2.05500073    -0.62349198    -3.61513976
Ti      0.93500900     3.45124502     7.62178100    -3.88002185    -0.92695040     3.64579812
Ti      1.93082300     0.29254802     1.46014799     1.46943177    -1.39257170    -2.52989909
Ti      3.13993603     5.29377898     7.76235402     1.51253581    -2.10718566     5.21685150
Ti      0.71294500     0.61690902     5.86544202    -2.18006926    -1.36035473    -3.30843661
Ti      4.55356701     4.81578100     3.46444598    -0.01118585     2.33835826     3.62753557
O       1.66492302     1.86591301     4.83337302     0.83093560    -0.19919758    -1.23679724
O       3.58680700     3.30635799     4.47518702    -0.50172500     1.28428270    -0.21603934
O       0.12565002     2.67329001     9.13138198    -0.81921239    -0.76089821     1.38889836
O       3.35687399     0.78562401     0.12093002    -0.28719773     0.69083408     1.16857273
O       1.85823798     4.41375002     9.05286599     0.53776108     1.18040033    -0.16160701
O       4.21112302     0.70084399     4.78883302    -0.12468364    -1.20027368     0.31550739
O       0.98790302     4.61353099     4.38328100     1.05528603     1.32528256     2.05793307
O       0.16516701     3.31233499     2.77556701     0.75531248    -2.50782693    -3.15105393
O       5.12299099     2.24071301     6.33429698    -1.17771069     1.04419609     2.64039409
O       2.78521301     1.74250602     2.45231401    -0.61111751    -1.29708269    -1.17913174
O       2.49174898     3.79944598     6.75275802     1.19353173    -0.24868156    -0.89128121
O       0.22606701     0.66487698     2.25113600     0.00890322     0.30631209    -1.22074789
O       4.88068099     4.81665002     7.24918899     1.10778155     0.92168966    -0.62712135
O       2.19461998     1.02892198     7.02091700    -1.32724611     1.85146133     0.17675287
O       3.02287900     4.53181899     2.40830302    -1.70856965     0.02892826    -1.65143406
