# total energy = -19517.25895533 eV

CRYSTAL
PRIMVEC
        5.93400000     0.00000000     0.00000000
        0.00000000     9.29699974     0.00000000
        0.00000000     0.00000000     4.64899994
PRIMCOORD
23 1
Ti      4.57881099     7.14274398     2.25865498    -0.01666950    -0.26412490    -0.66438487
Ti      4.43633901     2.28584601     2.42795201     0.30593079    -0.44010438    -0.07772448
Ti      1.37930098     7.01296500     2.09894198     0.69781925     0.02343459     1.88902953
Ti      1.46831801     2.26113502     2.27290598    -0.57261600     0.17369145     0.95779927
Ti      2.99357899     4.41523902     0.21014100    -0.34326554    -0.85203896    -0.57629833
Ti      2.92233300     9.23962402     4.63972199    -0.60078296     0.40879990    -0.83811695
Ti      0.00792702     4.67343698     0.01524898    -0.03575300    -1.12376122    -0.88010257
Ti      5.84048200     0.14550300     4.58794998     0.93502212     0.42447155     0.51111339
O       4.32137102     5.51962897     1.02129500     0.08528352     0.53081344    -0.58345243
O       4.36836000     0.91620802     0.87017600     1.40328986     0.21081717     0.16869888
O       1.47877000     5.49675698     0.86743100     0.60805044     1.18175556     0.54171158
O       1.61436601     0.97355702     0.90608697    -0.93141383    -0.59276291    -0.57407227
O       4.61721999     8.45360202     3.64192097    -0.78912842    -0.54581378     0.29092917
O       4.34766102     3.40550802     3.91911502    -0.10574334     2.51100867     0.34746338
O       1.54711197     8.36253802     3.61133702    -0.09279372    -0.44418935     0.52555965
O       1.48349402     3.73317299     3.68079301     0.43812257     1.00872359     1.09240017
O       3.02174900     1.24764401     3.14415098    -0.39046870     0.65201992     0.01439278
O       5.90773598     6.04982002     3.23218199     0.26126814     0.23137340    -0.28871314
O       0.05268399     1.61615701     3.46165299     0.11693407    -0.84452054    -1.44453602
O       3.08883200     8.02474201     1.42985598    -0.54943929    -2.04583449     0.49651286
O       2.94017500     3.24604898     1.59634297     0.45496613     0.35680600    -0.47679429
O       0.10269499     8.01106400     1.37551202    -0.93787553     0.15442026    -0.78528487
O       5.92571801     3.28925402     1.43073701     0.05926344    -0.71498472     0.35387006
