# total energy = -19071.20658468 eV

CRYSTAL
PRIMVEC
        5.17600016     0.00000000     0.00000000
        0.00000000     5.50899976     0.00000000
        0.00000000     0.00000000     9.26300011
PRIMCOORD
22 1
Ti      1.94205902     3.62351799     3.28837300    -1.01611397     1.65634178     0.15669903
Ti      3.89921500     2.23738602     6.03802699    -1.48413540    -0.53848665    -0.70183403
Ti      4.27907600     2.37357000     1.71643801     0.61986621    -0.56123680    -0.35428143
Ti      1.45696599     2.50983197     7.93011602    -0.40225361     0.61537577     0.96257870
Ti      1.55076801     0.70979402     1.32406900     0.57552906    -0.51177853    -0.97403888
Ti      3.03954999     0.01930502     7.67101300     1.96911788    -1.74742520     2.17567987
Ti      0.48808801     5.16907598     6.33590499    -0.40376902     0.10541064     0.38976679
Ti      4.41503999     4.99850898     3.55219902    -0.03175596     2.86683560     1.22493879
O       3.60880501     3.50872600     4.17358700    -0.75500138    -3.77871264     2.68883909
O       0.24963498     2.19034502     0.34940399     1.08520983    -0.03908927    -1.19036978
O       0.16079199     3.14948302     6.65875598     2.38324871     2.23654433    -1.16246533
O       2.85035298     1.26339698     0.03061603     0.00415336    -0.58799506    -1.09693689
O       1.31912098     4.99069800     8.06518999    -1.36785387    -1.73647898     1.79158237
O       4.12206699     0.37207701     5.19719403    -1.12322360     1.03660156    -0.25420301
O       0.97768698     5.00461902     4.56739600     1.88889455    -2.12372660    -0.76284299
O       0.12720098     3.91522102     2.40463000     1.36494698    -2.10851595    -2.12577474
O       4.65459298     1.06639799     7.27156699     0.92201876    -0.64664760     1.83340781
O       2.28149702     2.26335201     2.05428498     1.39624940     1.03309303     1.48165120
O       3.06531801     3.40810999     7.34924498    -0.87668994     0.65378035     0.07539506
O       0.12657502     0.94926699     2.53096499    -1.67376590     1.53436783    -0.00684402
O       2.16004401     1.17221201     6.67220100    -1.86328969     2.07736574    -2.68538815
O       2.80046998     5.13961002     2.52115198    -1.21138213     0.56437689    -1.46555943
