# total energy = -19939.31397889 eV

CRYSTAL
PRIMVEC
        5.41507554     0.00000000     0.00000000
        2.71215386     5.08523341     0.00000000
        0.00000000     0.00000000    10.02923839
PRIMCOORD
24 1
Ti      3.56992432     3.01350462     3.72077593     2.83727690    -4.27420759     1.01248486
Ti      4.55730522     2.07172893     6.30846257    -2.83727690     4.27420759    -1.01248486
Ti      5.77508799     2.07173074     1.29380325    -6.11460161     0.54895387     1.43168102
Ti      2.35214172     3.01350304     8.73543530     6.11460161    -0.54895387    -1.43168102
Ti      2.21384760     0.47088808     1.29384348     2.83727690    -4.27420759    -1.01248486
Ti      5.91338204     4.61434566     8.73539512    -2.83727690     4.27420759     1.01248486
Ti      0.99606474     0.47088612     6.30842234     6.11460161    -0.54895387     1.43168102
Ti      7.13116489     4.61434757     3.72081610    -6.11460161     0.54895387    -1.43168102
O       2.66890113     1.79059717     5.11784360     0.65779153     1.54343277    -1.35431598
O       5.45832847     3.29463641     4.91139489    -0.65779153    -1.54343277     1.35431598
O       1.94867029     1.79061764     0.10325664     1.54831941    -0.82058279     0.07271828
O       6.17855937     3.29461598     9.92598154    -1.54831941     0.82058279    -0.07271828
O       4.10225165     0.75201968     0.10322409    -0.65779153    -1.54343277    -1.35431598
O       4.02497794     4.33321385     9.92601409     0.65779153     1.54343277     1.35431598
O       4.82248255     0.75199925     5.11787610    -1.54831941     0.82058279     0.07271828
O       3.30474700     4.33323435     4.91136234     1.54831941    -0.82058279    -0.07271828
O       1.84642792     3.09312720     2.70914750     0.58376328     0.31301856     0.44490566
O       6.28080169     1.99210639     7.32009094    -0.58376328    -0.31301856    -0.44490566
O       3.96673373     1.99205889     2.30550360     1.77351651    -0.01466635    -0.92440372
O       4.16049587     3.09317469     7.72373468    -1.77351651     0.01466635     0.92440372
O       0.49035109     0.55051046     2.30547159     0.58376328     0.31301856    -0.44490566
O       7.63687850     4.53472307     7.72376669    -0.58376328    -0.31301856     0.44490566
O       2.80441905     0.55055796     7.32012290    -1.77351651     0.01466635    -0.92440372
O       5.32281054     4.53467558     2.70911548     1.77351651    -0.01466635     0.92440372
