# total energy = -19930.75217297 eV

CRYSTAL
PRIMVEC
        6.62755098     0.00000000     0.00000000
        0.00002332     3.79815614     0.00000000
        0.00000000     0.00000000    10.02693069
PRIMCOORD
24 1
Ti      2.40218237     2.25078393     3.71991991    -0.29123436     1.49778667    -0.88624776
Ti      4.22539209     1.54737252     6.30701120     0.29123436    -1.49778667     0.88624776
Ti      5.71584428     1.54737387     1.29350562    -0.28760962    -1.49757044     0.88812775
Ti      0.91173018     2.25078269     8.73342559     0.28760962     1.49757044    -0.88812775
Ti      2.40217081     0.35170591     1.29354580    -0.29123436     1.49778667     0.88624776
Ti      4.22540364     3.44645065     8.73338541     0.29123436    -1.49778667    -0.88624776
Ti      0.91171862     0.35170441     6.30697101     0.28760962     1.49757044     0.88812775
Ti      5.71585583     3.44645210     3.71996009    -0.28760962    -1.49757044    -0.88812775
O       2.09767001     1.33739541     5.11666614     3.00869704    -1.15459827     2.09368762
O       4.52990445     2.46076100     4.91026496    -3.00869704     1.15459827    -2.09368762
O       1.21616077     1.33741071     0.10323286    -3.00794319    -1.15458079     2.09227403
O       5.41141374     2.46074575     9.92369794     3.00794319     1.15458079    -2.09227403
O       4.52989289     0.56168293     0.10320033    -3.00869704     1.15459827     2.09368762
O       2.09768156     3.23647353     9.92373046     3.00869704    -1.15459827    -2.09368762
O       5.41140219     0.56166762     5.11669867     3.00794319     1.15458079     2.09227403
O       1.21617217     3.23648883     4.91023238    -3.00794319    -1.15458079    -2.09227403
O       0.24080843     2.31025390     2.70852422     0.78287472    -0.04911786     1.45314691
O       6.38676603     1.48790256     7.31840688    -0.78287472     0.04911786    -1.45314691
O       3.55459210     1.48786704     2.30497318     0.78585386     0.04905641    -1.45276279
O       3.07298236     2.31028942     7.72195772    -0.78585386    -0.04905641     1.45276279
O       0.24079687     0.41117578     2.30494118     0.78287472    -0.04911786    -1.45314691
O       6.38677758     3.38698068     7.72198972    -0.78287472     0.04911786     1.45314691
O       3.07297080     0.41121129     7.31843884    -0.78585386    -0.04905641    -1.45276279
O       3.55460365     3.38694516     2.70849222     0.78585386     0.04905641     1.45276279
