# total energy = -39034.32635589 eV

CRYSTAL
PRIMVEC
        7.60600008     0.00000000     0.00000000
        0.00000000     7.60600008     0.00000000
       -3.79573973    -3.79573973     9.71340985
PRIMCOORD
46 1
Ti      1.98234343     4.67377544     6.08476763    -0.05772951     0.70484197    -0.05973755
Ti      3.81125600     6.77116000     1.16792398     0.60567345     0.98000204     0.62113813
Ti      1.95008246     0.68130047     6.02341963    -0.36857934    -0.84515638     0.67751242
Ti      3.83178998     3.03318801     1.30032000    -0.21215286    -1.97490672     0.41401384
Ti     -1.81201355     4.79907943     5.97858964    -1.06016547     0.39975732     0.22558585
Ti      0.03668701     6.80121399     1.11544997    -1.14990935     0.79579452     0.49435596
Ti     -1.91753954     0.91610345     6.11770865     0.32773556    -0.41867859    -0.23727717
Ti     -0.20583497     3.06978998     1.26324299     0.85865519    -2.63123196     0.08986343
Ti      3.79334647     0.98753344     8.51262063     0.77095174    -1.24859012    -1.24072203
Ti      5.60189699     2.87057899     3.87533201    -0.09907210    -0.87121812    -0.72775436
Ti      3.94040547    -2.80043257     8.41823562    -0.01126426     0.70539656     0.83884766
Ti      5.71446399    -0.94951099     3.62766198    -0.01020523     0.85866881    -0.40617557
Ti      0.04032743     1.09696745     8.41228164    -0.69546232    -0.71140471    -0.34576002
Ti      1.75591902     2.73867002     3.47106298    -0.05402224    -0.23310067     0.97021308
Ti      0.02860044    -2.83953253     8.44538665    -0.17290084    -0.88695867     1.66157321
Ti      1.84646098    -1.10227103     3.52458100     0.40012011    -0.69156839     1.36209948
O       1.84262344    -1.14201753     5.80688660    -0.06624116     0.65860169    -1.34621932
O       3.72600602     0.95618403     0.97166802    -0.56639033     0.46992481    -1.92822756
O      -2.11473353     2.82337547     5.84346460     0.13212596    -0.04086770    -2.68017009
O      -0.03046500     4.79127899     0.83008701    -0.58355373     1.12027223    -0.61622938
O      -1.77690053    -0.94059055     5.66317164    -0.10965245    -1.53499904     0.40685820
O      -0.07302498     1.08841701     0.73296002     0.47174670    -2.24961814     0.13673877
O       3.80626946     2.85678344     8.89371863    -0.20964423     0.53217587     0.49984449
O       5.57586797     4.83384098     4.00989300    -0.24009253    -2.26176044     0.86177805
O      -3.44532258    -0.89314854     8.98056964    -0.87566947     0.43991206    -0.47084013
O      -1.55318899     0.79723098     4.18364999    -1.02516786     2.66560839    -1.06253372
O       0.21949844     2.88391743     8.83562460     0.04762816     0.70231791     0.92660793
O       1.79392601     4.49301299     4.07997300     0.81722133     0.92894994     0.74236672
O      -0.14063356    -0.62886853     9.21986962     0.08352206    -0.38349226    -2.03786612
O       1.75187600     0.91417100     4.15002501    -0.02929156     0.09092324    -0.45632007
O       1.89452546     0.95450346     7.95382961     1.44447715     0.17127050     1.05817184
O       3.75167498     2.78792002     3.18810100     0.17094294     0.27196214     1.71973904
O       1.99106147    -2.72029656     8.00695462    -0.85124115    -0.30716801     0.36873875
O       3.73911300    -0.99066199     3.36352903     0.63066793     0.19682111    -1.01831175
O      -1.87419358     1.21658543     7.96156962    -0.78007067    -0.15715128     1.79896735
O      -0.24155899     3.08347800     3.30923401     0.97263377    -0.62874140    -0.48262890
O      -1.76471156     4.36295847     8.10976063    -0.54198129     1.86586928    -0.09663341
O       0.02957699     6.32381398     3.27281201    -0.83186222     1.03665530    -1.12672544
O       3.92486046     4.78547243     6.46856163    -1.37939119    -0.22834181     0.17691073
O       5.67118798     6.89724600     1.54566801     0.88635215    -1.26785978     1.03845301
O       3.84155346     0.50794147     6.48954965    -0.91911984     1.18851730     0.16188623
O       5.62331401     2.62867201     1.59981200    -0.18078204     1.27998150    -0.05561401
O      -0.07832654     4.60076046     6.31127063     3.07841407    -0.23535707     1.22684784
O       1.92049701     6.38087299     1.60119998    -0.15928299     0.66111057    -0.20141155
O      -0.01469155     0.93729647     6.50054865     1.29651859     0.08958832    -0.79316351
O       1.74185402     2.62446902     1.71457101     0.24551088     0.99324709    -1.08879086
