# total energy = -19890.82537094 eV

CRYSTAL
PRIMVEC
        7.12959892     0.00000000     0.00000000
        0.00002245     2.87822565     0.00000000
        0.00000000     0.00000000    11.03484154
PRIMCOORD
24 1
Ti      2.58415010     1.70563382     4.09384752    -0.98096955     0.60918918    -0.78494754
Ti      4.54547148     1.17259173     6.94099412     0.98096955    -0.60918918     0.78494754
Ti      6.14882788     1.17259271     1.42352921    -0.97875712    -0.60924626     0.78745694
Ti      0.98079370     1.70563299     9.61131253     0.97875712     0.60924626    -0.78745694
Ti      2.58413897     0.26652104     1.42357345    -0.98112047     0.60775682     0.78512109
Ti      4.54548260     2.61170461     9.61126829     0.98112047    -0.60775682    -0.78512109
Ti      0.98078257     0.26652001     6.94094988     0.97871932     0.60795094     0.78710110
Ti      6.14883900     2.61170564     4.09389176    -0.97871932    -0.60795094    -0.78710110
O       2.25657107     1.01347216     5.63099516     7.79137544    -1.30850353     3.66383313
O       4.87305055     1.86475339     5.40384648    -7.79137544     1.30850353    -3.66383313
O       1.30828604     1.01348375     0.11360988    -7.79023824    -1.30910363     3.66498293
O       5.82133563     1.86474180    10.92123146     7.79023824     1.30910363    -3.66498293
O       4.87303943     0.42564056     0.11357409    -7.79177679     1.30853130     3.66398894
O       2.25658215     2.45258498    10.92126725     7.79177679    -1.30853130    -3.66398894
O       5.82132451     0.42562897     5.63103100     7.78995747     1.30901313     3.66466617
O       1.30829701     2.45259663     5.40381064    -7.78995747    -1.30901313    -3.66466617
O       0.25904849     1.75069999     2.98078598     2.25383758    -0.90234724     2.09492483
O       6.87057308     1.12752556     8.05405566    -2.25383758     0.90234724    -2.09492483
O       3.82385734     1.12749881     2.53666988     2.25507994     0.90294091    -2.09587409
O       3.30576428     1.75072679     8.49817156    -2.25507994    -0.90294091     2.09587409
O       0.25903737     0.31158716     2.53663464     2.25371031    -0.90221689    -2.09538403
O       6.87058420     2.56663838     8.49820680    -2.25371031     0.90221689     2.09538403
O       3.30575316     0.31161392     8.05409080    -2.25493956    -0.90236396    -2.09486184
O       3.82386847     2.56661163     2.98075079     2.25493956     0.90236396     2.09486184
