# total energy = -19073.63249085 eV

CRYSTAL
PRIMVEC
        5.17600016     0.00000000     0.00000000
        0.00000000     5.50899976     0.00000000
        0.00000000     0.00000000     9.26300011
PRIMCOORD
22 1
Ti      1.75611497     3.41602298     3.31618200     0.32246119     0.43763020    -1.82736391
Ti      3.73660999     2.21871199     5.88747998    -1.37399855    -0.42039943    -1.49911516
Ti      4.17957300     2.24675701     1.20294298     0.94229320    -0.72481250     0.50741614
Ti      0.85413399     3.14031100     8.07713802    -0.48944284     0.89214690     0.41496721
Ti      1.65879399     0.49798601     1.27695000    -0.36803916    -0.23555427    -0.29178844
Ti      3.28016001     5.08473000     8.10794598     0.87222599    -0.70513585     1.31141402
Ti      1.44138300     0.17199801     6.04929899    -2.64094276     1.68111308    -2.90649102
Ti      4.26037799     4.93441000     3.49871799     0.08983952     0.57171457    -0.52545732
O       3.27682899     3.60275900     4.46417098     0.63118909    -1.66855941     1.88784811
O       1.03783301     1.97222202     0.25233299    -1.17341669     0.41419099    -0.85839396
O       4.27034298     3.51113699     8.78169498    -0.23975880    -0.29324882     0.18477805
O       3.41777498     0.83107298     0.11654298     1.08556875     1.10282009     1.01630398
O       1.67380802     4.69943699     9.02742003    -1.02264741    -0.43810303     1.21704807
O       3.51815398     0.73534698     4.78097702     0.30755830     0.62235658    -0.08088745
O       0.88230400     4.81956102     4.25846100    -0.10850188     0.98555357     2.04544625
O       5.15384398     3.36093198     2.53600402    -0.15375691    -0.92343570    -0.67457339
O       0.26096900     2.15526099     6.40687999     1.32154186    -0.57032746     0.20008075
O       2.56868601     1.85540699     2.32819299     0.48028482     0.90612677     0.08691463
O       2.04654200     4.29480103     6.81690499     0.95438562    -4.24072925    -0.32126100
O       5.08703298     0.56403998     2.05320302     0.41798003     0.59618865     0.16928664
O       2.62088998     1.11797198     7.10924399     0.65618022     2.54526889    -0.56125866
O       2.75277497     4.66432301     2.22903798    -0.51100334    -0.53480457     0.50508620
