# total energy = -19077.75632731 eV

CRYSTAL
PRIMVEC
        7.60629642    -0.00000847    -0.00005503
       -0.00000847     7.60629642    -0.00005503
       -1.90157093    -1.90157093     4.85369047
PRIMCOORD
22 1
Ti      3.80307350     6.66366249     1.15494648     0.00002648     0.00466347     0.01465632
Ti      3.80297214     2.84968803     1.21147295     0.00000951    -0.00290380    -0.03358196
Ti     -0.00007507     6.66367337     1.15495643    -0.00005759     0.00464444     0.01471366
Ti     -0.00016918     2.84969984     1.21148606    -0.00000951    -0.00289429    -0.03352283
Ti      5.70492161     2.84952177     3.62464719    -0.00011364     0.00510647     0.01007050
Ti      5.70480272    -0.94270775     3.64900029    -0.00005374     0.00047488     0.00756522
Ti      1.90176365     2.84952931     3.62468711     0.00011364     0.00506353     0.01013272
Ti      1.90162745    -0.94270742     3.64904283    -0.00002263     0.00056950     0.00774134
O       3.80319334     4.75842560     0.77592690     0.00004551     0.00774134     0.00568445
O       3.80318714     0.94000071     0.83791599     0.00002854    -0.00784521    -0.00135266
O       0.00005403     4.75841994     0.77594232     0.00004422     0.00801336     0.00568420
O       0.00006097     0.94001720     0.83793078     0.00003034    -0.00808844    -0.00133260
O       5.70464671     4.76987708     4.00543462     0.00002931    -0.02335411     0.00758527
O       5.70463253     0.93195934     4.04772397    -0.00001517     0.01137174    -0.02066294
O       1.90153016     4.76988160     4.00548995    -0.00004397    -0.02331554     0.00733922
O       1.90150638     0.93195935     4.04776116    -0.00008356     0.01131697    -0.02069636
O       3.80315084     2.85383891     3.22044459     0.00010696     0.00548442    -0.00285238
O       0.00001310     2.85384454     3.22048416    -0.00012778     0.00549728    -0.00301488
O       5.70470716     6.65488153     1.75562705     0.00017381    -0.01148101     0.01136839
O       5.70471544     2.84986586     1.62071290     0.00018641     0.01071533     0.00169050
O       1.90156516     6.65487766     1.75569127    -0.00011441    -0.01149078     0.01117453
O       1.90157262     2.84987895     1.62074305    -0.00015272     0.01071045     0.00161054
