# total energy = -19516.80054834 eV

CRYSTAL
PRIMVEC
        5.93400000     0.00000000     0.00000000
        0.00000000     9.29699974     0.00000000
        0.00000000     0.00000000     4.64899994
PRIMCOORD
23 1
Ti      4.44533899     6.88217901     2.31680701     2.38091517     0.68643003    -0.15130948
Ti      4.51892701     2.40096698     2.32472302    -0.50314553    -0.34582404     0.28465388
Ti      1.52139698     7.11079501     2.27553801    -0.94667591    -0.33053266    -0.52236839
Ti      1.52719300     2.32867100     2.37096502     0.06144527    -0.24511775    -0.31464272
Ti      2.98258300     4.67838701     0.25725402    -1.77453312     0.43769679    -0.41399147
Ti      2.96596398     0.13133200     4.58680299    -0.03612736    -1.19829033     0.18169787
Ti      5.91728102     4.41387601     4.59856200     0.07379943     2.25208383    -0.62801995
Ti      5.90532399     0.06722297     4.56550699     0.20465552    -0.92564839    -0.00996946
O       4.48615798     5.38276400     0.90621001    -0.20430816     2.19490685     1.12314055
O       4.57683800     1.03509801     0.81176002    -1.05956640    -0.40653887     0.45722690
O       1.37555499     5.50588502     0.97764798     0.79629126    -0.27107613    -0.83161308
O       1.53547902     0.87238500     0.99671302    -0.25009361     0.20360728    -0.64455009
O       4.37331802     8.46699100     3.54794698     0.43723708    -0.36864311     0.82577694
O       4.27913701     3.63016202     3.82507800     0.80009161     0.19787886    -0.83561604
O       1.46954099     8.49861802     3.64943900     0.42515032    -0.49360828     0.08866941
O       1.38804902     3.54239702     3.87774199     1.19575368     0.26892592    -0.91354003
O       2.98867298     1.42610702     3.23822102    -0.07996365     0.35424338    -0.50728090
O       5.79998899     6.04070198     3.26422399    -0.08222417    -0.38292559     0.10028463
O       0.04535901     1.38230898     3.17470101    -0.55645275     0.32756355     0.09910809
O       2.89723698     7.68359800     1.12926002     0.54355686     0.10726132     1.52301126
O       2.95390398     3.37442500     1.46433997    -0.06355769    -2.03841531     1.47354785
O       0.07228302     7.76628898     1.46860800    -1.61688536     1.31328116    -1.65851539
O       5.90948200     3.33725098     1.45087400     0.25463727    -1.33725876     1.27430065
