# total energy = -19879.63020598 eV

CRYSTAL
PRIMVEC
        7.49190175     0.00000000     0.00000000
        0.00002278     2.65788302     0.00000000
        0.00000000     0.00000000    11.91898379
PRIMCOORD
24 1
Ti      2.71546767     1.57505892     4.42185808    -0.73497145     0.62758620     0.21507903
Ti      4.77645706     1.08282384     7.49712607     0.73497145    -0.62758620    -0.21507903
Ti      6.46129075     1.08282469     1.53758638    -0.73469969    -0.62782557    -0.21454167
Ti      1.03063403     1.57505817    10.38139787     0.73469969     0.62782557     0.21454167
Ti      2.71545633     0.24611747     1.53763417    -0.73497145     0.62758620    -0.21507903
Ti      4.77646845     2.41176540    10.38135007     0.73497145    -0.62758620     0.21507903
Ti      1.03062264     0.24611656     7.49707827     0.73469969     0.62782557    -0.21454167
Ti      6.46130214     2.41176630     4.42190588    -0.73469969    -0.62782557     0.21454167
O       2.37124229     0.93588571     6.08216634     7.88163636    -0.81860484     2.87434373
O       5.12068250     1.72199710     5.83681781    -7.88163636     0.81860484    -2.87434373
O       1.37476856     0.93589650     0.12271264    -7.88293168    -0.81868686     2.87433576
O       6.11715628     1.72198631    11.79627115     7.88293168     0.81868686    -2.87433576
O       5.12067111     0.39305554     0.12267393    -7.88163636     0.81860484     2.87434373
O       2.37125368     2.26482722    11.79630986     7.88163636    -0.81860484    -2.87434373
O       6.11714489     0.39304480     6.08220499     7.88293168     0.81868686     2.87433576
O       1.37477980     2.26483801     5.83677915    -7.88293168    -0.81868686    -2.87433576
O       0.27221210     1.61667511     3.21961493     1.37998203    -0.31526390     5.32743803
O       7.21971269     1.04120765     8.69936916    -1.37998203     0.31526390    -5.32743803
O       4.01817288     1.04118301     2.73991501     1.38329875     0.31556832    -5.32776019
O       3.47375190     1.61669980     9.17906893    -1.38329875    -0.31556832     5.32776019
O       0.27220071     0.28773361     2.73987696     1.37998203    -0.31526390    -5.32743803
O       7.21972408     2.37014921     9.17910698    -1.37998203     0.31526390     5.32743803
O       3.47374056     0.28775824     8.69940716    -1.38329875    -0.31556832    -5.32776019
O       4.01818422     2.37012452     3.21957689     1.38329875     0.31556832     5.32776019
