# total energy = -19956.92959385 eV

CRYSTAL
PRIMVEC
        5.07153052     0.00000000     0.00000000
        1.06886646     5.29075273     0.00000000
        0.00000000     0.00000000     9.12310336
PRIMCOORD
24 1
Ti      2.47159508     3.13529517     3.38460639     1.31424172    -1.21927336     0.68479327
Ti      3.66880166     2.15545769     5.73849733    -1.31424172     1.21927336    -0.68479327
Ti      4.80932484     2.15545958     1.17690901    -2.19956363    -0.47186008     1.10684052
Ti      1.33107192     3.13529348     7.94619481     2.19956363     0.47186008    -1.10684052
Ti      1.93716197     0.48991900     1.17694560     1.31400544    -1.21452171    -0.68501207
Ti      4.20323478     4.80083401     7.94615822    -1.31400544     1.21452171     0.68501207
Ti      0.79663872     0.48991695     5.73846074     2.19857273     0.47787929     1.10722799
Ti      5.34375803     4.80083606     3.38464297    -2.19857273    -0.47787929    -1.10722799
O       1.98153739     1.86296400     4.65544995    -0.21644917     0.27069690    -0.62066530
O       4.15885935     3.42778886     4.46765377     0.21644917    -0.27069690     0.62066530
O       1.30699381     1.86298531     0.09392747     0.62750804    -0.70728169     0.23135798
O       4.83340299     3.42776759     9.02917598    -0.62750804     0.70728169    -0.23135798
O       3.62442622     0.78241253     0.09389786     0.21601851    -0.27121060    -0.62075761
O       2.51597052     4.50834032     9.02920560    -0.21601851     0.27121060     0.62075761
O       4.29896987     0.78239127     4.65547957    -0.62785128     0.70759176     0.23103067
O       1.84142683     4.50836164     4.46762415     0.62785128    -0.70759176    -0.23103067
O       0.83440555     3.21813566     2.46437791    -0.33655676    -0.28149939    -0.59568677
O       5.30599119     2.07261719     6.65872581     0.33655676     0.28149939     0.59568677
O       3.13874696     2.07256778     2.09720297     0.82169531    -0.64893074    -0.88524477
O       3.00164978     3.21818508     7.02590059    -0.82169531     0.64893074     0.88524477
O       0.29997243     0.57275934     2.09717382    -0.33688637    -0.28153667     0.59523503
O       5.84042432     4.71799357     7.02592974     0.33688637     0.28153667    -0.59523503
O       2.46721665     0.57280871     6.65875491    -0.82232883     0.64924236    -0.88518332
O       3.67318009     4.71794415     2.46434876     0.82232883    -0.64924236     0.88518332
