# total energy = -39037.16543405 eV

CRYSTAL
PRIMVEC
        7.60600008     0.00000000     0.00000000
        0.00000000     7.60600008     0.00000000
       -3.79573973    -3.79573973     9.71340985
PRIMCOORD
46 1
Ti      1.92115345     4.83708245     6.22561260    -0.58409418     0.55635891    -0.02091773
Ti      3.75635000     6.75575602     1.37072503    -0.06796148     0.79492600     0.19954262
Ti      1.97013246     0.76059646     6.03498062     0.81541024     0.93943311    -0.69675893
Ti      3.85070601     2.75091402     1.14900399     0.14432662     0.66040120     0.65237396
Ti     -1.84692057     4.85790446     6.12730660    -0.33795081    -1.99006827     0.55261692
Ti     -0.05683501     6.70161801     1.26471098    -0.04105590    -0.19101298    -0.48202494
Ti     -1.89737556     0.95972846     5.96567364    -0.59611229     0.98136730     0.63033317
Ti     -0.03871403     2.92627097     1.02896701    -0.06283213    -0.12878146     1.60741187
Ti      3.81743647     0.99554746     8.48379264     0.64004140     0.46065264    -1.22199308
Ti      5.74890301     2.89679501     3.64057401    -1.23527746    -0.42353412    -0.24926263
Ti      3.79446547    -2.80511055     8.53288261    -0.46536110    -0.46069121     0.19737029
Ti      5.75765899    -0.96062700     3.69348199    -0.78051316     0.16709631    -0.96715629
Ti      0.00617947     0.96629147     8.28431160    -0.05030571    -0.63406821     3.14264205
Ti      1.81882401     2.79326698     3.44882801     0.74459689    -0.47837732     0.76287307
Ti     -0.02996852    -2.99325958     8.60080161     0.30532221     1.00218476    -0.49157531
Ti      1.87129300    -1.12341600     3.67928300     0.70541404     0.57253475     1.58728912
O       1.79412747    -0.96464456     5.69584061    -0.20880734    -1.56705608    -0.49130534
O       3.59972602     1.00696001     0.75254302    -0.11344277    -1.99763374     0.98174011
O      -1.93778152     2.91708044     5.65224063    -0.03327883    -0.01894569    -0.05642802
O       0.06530000     4.80744302     0.74665301    -0.30344505     0.00465216     0.92189998
O      -1.95735653    -0.99699756     5.59088862     0.87670897     0.51819626     0.43596233
O      -0.03201602     0.97667901     0.72254100     0.52365189    -0.47601164     0.67514366
O       3.65084544     2.78818746     8.94276765     0.30841757     2.13661040    -0.18230208
O       5.69416502     4.75264799     3.92487099     0.18116565     0.77384217     0.70222356
O       3.86188847    -0.80628753     8.86088863     0.06878449    -2.29637624     0.09109808
O       5.75774699     1.02021299     4.07265300     0.10549960    -1.04512837     0.15926370
O       0.15664747     2.77199247     9.08343460    -0.30144216    -0.96102370    -0.68209310
O       1.88669899     4.56180699     4.15714001    -0.00116934     0.44055380     0.42352590
O      -0.00866353    -0.88160454     8.91688665     0.01299230     1.23537902     0.18500688
O       1.82443202     1.01217902     3.97425598     0.15427139     0.01217726     1.39946971
O       1.98492444     0.86459747     7.90188462    -0.15604005     0.61015926     1.10982763
O       3.85956502     2.73646197     3.15547701     0.14383528     0.57737614    -0.16550094
O       1.85139143    -2.60088555     8.20491263     0.32639730    -1.09843610    -0.23559798
O       3.78476698    -0.77315802     3.33232498     0.23638885    -0.79091379    -0.00921741
O      -1.85659256     0.92479445     8.05638760    -0.77011613     0.74043710    -0.08141118
O      -0.08519902     2.75418301     3.06405201     0.49507227     0.57159681     0.31090202
O      -1.90643756    -2.84858754     8.20357064    -0.01009287    -0.19515349    -0.92280989
O       0.02967102    -0.84639202     3.34058898    -1.38346999    -0.42703905    -0.56823766
O       3.75134747     4.96006944     6.62148063     0.90279436    -0.80915398    -1.02633925
O       5.62707000     6.71115098     1.62423300     1.12601402    -0.37236067     0.49640950
O       3.89457247     0.64874744     6.37667461    -0.71431366     1.32012107     0.04513368
O       5.70972902     2.74899702     1.42026898    -0.19427057     0.85105166     0.15697131
O       0.00300144     4.67033743     6.56950764    -0.29253328    -0.13904454    -0.43370207
O       1.87300298     6.53513001     1.85530697     0.05133775    -0.15054149    -2.74632975
O       0.01845045     0.94499642     6.53957664     0.16306122     0.25160645    -3.54156865
O       1.91958000     2.88780598     1.66319701    -0.32761883     0.47263733    -2.15449937
