# total energy = -19073.56389963 eV

CRYSTAL
PRIMVEC
        5.17600016     0.00000000     0.00000000
        0.00000000     5.50899976     0.00000000
        0.00000000     0.00000000     9.26300011
PRIMCOORD
22 1
Ti      1.79372699     3.40681699     3.35183998     1.97260147    -0.53900550    -1.55090723
Ti      3.85286399     2.27513901     5.91186298    -1.19422001    -0.58578005    -1.11471350
Ti      4.24640898     2.15221902     1.28907499    -0.33611118     0.82982360    -0.56797233
Ti      0.70506698     3.21139898     8.20915398    -0.26658184     1.41617237    -0.95755528
Ti      1.67452002     0.53672501     1.33448501     1.40844621    -0.64627016    -0.81783351
Ti      3.22058100     5.12246700     7.95807499    -0.30221683     0.09012106     1.49720303
Ti      1.04523900     5.50092499     6.02640298    -0.50255521     1.94870666    -0.42944381
Ti      4.45130398     5.01782400     3.40650901    -1.42677072    -0.90514126     0.79991754
O       3.49827099     3.54821300     4.51235400    -0.07440030    -0.18188222     0.59579990
O       0.75046298     1.92883102     0.31143002     0.33827400     0.40285293    -1.52915492
O       4.04420200     3.57308099     8.67081499     1.47315138    -1.41438623     0.64849211
O       3.29845001     0.79583401     0.32997800     0.74865281     0.36214747    -1.97765575
O       1.69701302     4.67757202     9.02244698    -1.87282463    -0.49305781     0.83436442
O       4.15589300     0.99292602     4.57928698     0.33067304    -0.74914775     0.92522030
O       1.10105302     4.86918801     4.15134398    -1.49349499     1.85472072     3.23498659
O       0.13264701     3.40535398     2.42330700    -0.52871954    -0.23626596     0.06299642
O       0.36114400     2.06537198     6.58619498    -0.35305245    -0.74042476     0.17000449
O       2.64007102     1.89482202     2.36960498    -0.66142193     0.09886512     0.38445823
O       1.97214899     4.12462498     6.69767998     0.45480261    -1.48946195     0.53012902
O       5.06833503     0.66368098     2.06868198     0.53341849    -0.76969987     0.79993065
O       2.53162000     1.00936502     6.94162900     1.05786536     1.57640281    -1.57206022
O       2.67134401     4.62467398     2.28464001     0.69448402     0.17071129     0.03379331
