# total energy = -19073.79713898 eV

CRYSTAL
PRIMVEC
        5.17600016     0.00000000     0.00000000
        0.00000000     5.50899976     0.00000000
        0.00000000     0.00000000     9.26300011
PRIMCOORD
22 1
Ti      1.69634298     3.25598402     3.47442902     0.51497776     1.68172012    -0.61979961
Ti      3.66789903     2.16885698     5.86245302    -1.48177718     0.69012163    -0.73731013
Ti      4.31804699     2.28703697     1.28452703     0.29009433    -0.20538520    -0.63837687
Ti      0.97115202     3.19604601     8.04816800    -0.05096597    -0.26086885     0.74377645
Ti      1.74543099     0.56316202     1.29557799     0.62771013    -0.00200238    -0.48541854
Ti      3.26223201     5.07526000     8.08210202    -1.42738702     0.69193580     1.92829518
Ti      1.39653702     0.27174400     5.82034702     0.18423478     0.10571352    -0.28148705
Ti      4.20519602     5.01314099     3.36811001    -0.18072471    -0.15903976     0.58716690
O       3.53204499     3.53822398     4.33002597    -1.36634695    -1.91361443     1.82544098
O       1.00708098     1.92288799     0.11342898    -0.94724232     0.29681134    -0.40228472
O       4.35214299     3.66045001     8.51679801     1.10365595    -0.81797363     0.30459073
O       3.48763998     0.76019000     0.45638601    -0.23966753    -0.07081489    -2.01315910
O       1.76581400     4.60797998     9.20266501    -0.65168773    -0.44672831    -1.03917781
O       3.16978602     0.70351702     4.82402500     0.23517632    -0.35304242    -0.77029971
O       0.55292101     4.59346200     4.59577800     1.05315484     0.44165912     0.46111312
O       0.05373599     3.61910200     2.28587400    -0.15020416    -0.23963153     0.17010862
O       0.13246899     1.62882398     6.48204300     0.39823523     0.10604905    -0.06511913
O       2.62181202     2.12483499     2.32118103     0.05379881    -0.57775666    -0.56801269
O       2.25467498     3.96628398     6.78581498     0.13711133    -0.22193796    -0.62290576
O       5.14193803     0.86305798     2.13163402     1.03280275    -0.51879173     1.90557330
O       2.54590398     1.08223802     7.17249099     0.94783985     1.31783818    -0.08191821
O       2.48753001     4.75328401     2.48427700    -0.08278827     0.45573900     0.39920402
