# total energy = -19517.82916210 eV

CRYSTAL
PRIMVEC
        5.93400000     0.00000000     0.00000000
        0.00000000     9.29699974     0.00000000
        0.00000000     0.00000000     4.64899994
PRIMCOORD
23 1
Ti      4.57617399     7.18401800     2.20409199     0.17231283    -0.84731019     0.52532131
Ti      4.49867402     2.30891401     2.35308200    -0.29022083    -1.03506455    -0.12390819
Ti      1.36584601     7.03058502     2.13185998    -0.84154166     0.32863544     0.39256877
Ti      1.47923399     2.28090598     2.37056999     0.35805376    -0.51254883     0.43164159
Ti      3.01397501     4.46703298     0.19764098    -1.18217825    -0.45257140     0.64527360
Ti      2.94600399     9.25135900     4.64725101    -0.20772284     0.76791038    -0.39846380
Ti      5.90051801     4.59642301     0.04696602     0.87054680     0.74222916    -0.66953531
Ti      5.93210999     0.06060598     4.58993699     0.22267099     0.96236067    -0.77168116
O       4.36762598     5.50268303     1.02778700    -0.02597844     0.66332275    -0.17400307
O       4.42899397     0.91984997     0.78466900     0.02126997     0.70669213     1.40929698
O       1.42980603     5.59103800     0.87162902     0.95681043     0.48281222     0.70323528
O       1.44189201     0.92500199     0.80038101     0.83189899     0.37853903     1.22156885
O       4.48251898     8.45659801     3.58201001    -0.56015463    -0.43282558     0.53710314
O       4.45117502     3.60605101     4.00247002    -0.54114234    -0.07988806    -1.86096182
O       1.50719201     8.43579700     3.75587099    -0.20835688    -1.51116773    -1.39303347
O       1.48352101     3.70033500     3.84457401     0.44332288     0.44931818    -0.59377130
O       2.96030400     1.33155099     3.19806900     0.49858697     0.44496968    -0.37419438
O       5.86544599     6.08915599     3.26450800     0.10506868     0.05859083    -0.47816340
O       0.01930899     1.49722802     3.31263001    -0.35076982    -0.04332362    -0.91714446
O       2.94920001     7.86658501     1.43359202    -0.12358320    -0.69740736     0.34413894
O       2.96997498     3.24161701     1.56166398     0.12051356     0.44355454    -0.15209624
O       5.89366802     8.02360603     1.27512498     0.78611585    -1.41147188     1.07039744
O       0.11420899     3.14857903     1.38421100    -1.05552283     0.59464445     0.62641069
