# total energy = -19896.09400567 eV

CRYSTAL
PRIMVEC
        6.87017231     0.00000000     0.00000000
        3.13185560     6.60726544     0.00000000
        0.00000000     0.00000000    12.63587047
PRIMCOORD
24 1
Ti      4.34604168     3.91545934     4.68781779    -0.31606994    -1.91166810     0.31731976
Ti      5.65598599     2.69180601     7.94805275     0.31606994     1.91166810    -0.31731976
Ti      7.20100162     2.69180824     1.63006701     0.01297996    -1.32069828     0.29375199
Ti      2.80102618     3.91545736    11.00580373    -0.01297996     1.32069828    -0.29375199
Ti      2.78011405     0.61182673     1.63011765    -0.31606994    -1.91166810    -0.31731976
Ti      7.22191367     5.99543882    11.00575309     0.31606994     1.91166810     0.31731976
Ti      1.23509837     0.61182429     7.94800210    -0.01297996     1.32069828     0.29375199
Ti      8.76692941     5.99544124     4.68786850     0.01297996    -1.32069828    -0.29375199
O       3.27723244     2.32653045     6.44798799     1.73382072     1.91537949    -0.77755151
O       6.72479523     4.28073490     6.18788262    -1.73382072    -1.91537949     0.77755151
O       2.36346561     2.32655714     0.13009339    -0.06510370    -0.97784412     1.70823129
O       7.63856215     4.28070833    12.50577687     0.06510370     0.97784412    -1.70823129
O       5.15886757     0.97710215     0.13005234    -1.73382072    -1.91537949    -0.77755151
O       4.84316012     5.63016327    12.50581785     1.73382072     1.91537949     0.77755151
O       6.07263447     0.97707551     6.44802897     0.06510370     0.97784412     1.70823129
O       3.92939314     5.63018992     6.18784157    -0.06510370    -0.97784412    -1.70823129
O       2.15458131     4.01891343     3.41326386     0.62080800     2.95432770     2.77386293
O       7.84744630     2.58835194     9.22260674    -0.62080800    -2.95432770    -2.77386293
O       4.91156322     2.58829045     2.90471160     0.44460766     2.15781687     1.89578639
O       5.09046445     4.01897490     9.73115873    -0.44460766    -2.15781687    -1.89578639
O       0.58865363     0.71528061     2.90467124     0.62080800     2.95432770    -2.77386293
O       9.41337398     5.89198476     9.73119909    -0.62080800    -2.95432770     2.77386293
O       3.52453677     0.71534208     9.22264697    -0.44460766    -2.15781687     1.89578639
O       6.47749090     5.89192327     3.41322350     0.44460766     2.15781687    -1.89578639
