# total energy = -19958.70847002 eV

CRYSTAL
PRIMVEC
        7.60600008     0.00000000     0.00000000
        0.00000000     7.60600008     0.00000000
       -1.89786986    -1.89786986     4.85670466
PRIMCOORD
24 1
Ti      3.81229102     6.54781000     1.27545598     1.51174057    -0.04195682     0.02390921
Ti      3.52642899     2.74047901     1.28195702     0.30702274     0.58651101     1.26662976
Ti      0.24854402     6.55780700     1.13309798    -0.82059050     1.66102993    -0.93618015
Ti     -0.03838202     3.00152300     1.12637097     0.16436966    -1.32256773    -0.18782584
Ti      5.74258521     2.95542123     3.41475280    -0.37644435     0.85750282    -0.35813295
Ti      5.86511621    -0.89148179     3.55310482    -2.21660722    -0.30148638     0.95830527
Ti      1.77070323     2.77037123     3.81402783     0.31687444     0.47308676     0.21845258
Ti      1.81538224    -1.00959378     3.67541879     2.85637274     0.05695304     0.96443144
O       3.32459698     4.55830399     0.98045702     1.52890706     2.49139243    -1.19192787
O       3.87177001     0.97887499     0.89306302    -0.40128019    -1.12584535    -1.16546838
O       0.45926299     4.81850701     0.84228100    -1.31980328    -0.97871932    -0.58417440
O       0.12503802     1.03633602     0.69630503    -0.05166274     1.20874984     0.11834998
O       5.85379922     4.81843022     4.04514981    -0.86112782    -0.09452690     0.36920052
O       5.86304421     1.19083323     3.86506682    -0.23341460    -2.53506469     1.39246191
O       1.88399621     4.74059021     4.10976981     0.57373931    -0.11538215     1.28437655
O       1.57379923     0.93604825     3.98272583     0.31033227    -1.45409205     0.77281219
O       3.75884221     2.82369123     3.17077780    -0.22183615    -0.16306559     0.89261896
O       3.88673525    -1.02217878     3.33489180    -0.62919931     0.46124579    -0.51256040
O      -0.03063677     3.12839324     3.38815879    -0.99569144    -0.41677546    -1.09963372
O       0.12300625     6.31873822     3.05992781    -0.97959581     0.97850232     0.48324905
O       5.65179898     6.52349700     1.67013097     1.81373706     0.09298064    -0.85357391
O       5.62381799     3.01850202     1.48596898     1.56383885     0.15307145     0.34286445
O       2.06947601     6.76607302     1.60956399    -2.49161560     0.63920554     0.98065099
O       1.68531699     2.90545002     1.99108899     0.65193430    -1.11074963    -3.17883497
