# total energy = -4987.31650124 eV

CRYSTAL
PRIMVEC
        3.63360357     0.00000000     0.00000000
        0.00000000     4.20810053     0.00000000
        0.00000000    -0.00006639     5.06466108
PRIMCOORD
6 1
Ti      1.81680184     2.10401690     2.53233054     0.00000000     0.00000000     0.00000000
Ti      0.00000000     0.00000000     0.00000000     0.00000000     0.00000000     0.00000000
O       1.81680184     0.82008381     0.98702783    -0.00000000     0.32362847     0.43284846
O       1.81680184     3.38794993     4.07763319    -0.00000000    -0.32362847    -0.43284846
O       0.00000000     1.28390626     3.51935950     0.00000000    -0.32311837     0.43276773
O       0.00000000     2.92412754     1.54530159     0.00000000     0.32311837    -0.43276773
