# total energy = -4976.06879230 eV

CRYSTAL
PRIMVEC
        4.73948353     0.00000000     0.00000000
        0.00000000     2.47535352     0.00000000
        0.00000000    -0.00013056     6.60094177
PRIMCOORD
6 1
Ti      2.36974154     1.23761142     3.30047088     0.00000000     0.00000000     0.00000000
Ti      0.00000000     0.00000000     0.00000000     0.00000000     0.00000000     0.00000000
O       2.36974154     0.48238449     1.28642635     0.00000000    -0.03279340     2.24686860
O       2.36974154     1.99283841     5.31451548     0.00000000     0.03279340    -2.24686860
O       0.00000000     0.75517565     4.58689857    -0.00000000     0.03286334     2.24176779
O       0.00000000     1.72004725     2.01404320    -0.00000000    -0.03286334    -2.24176779
