# total energy = -19952.25599779 eV

CRYSTAL
PRIMVEC
        5.12898668     0.00000000     0.00000000
        1.60162741     5.21854463     0.00000000
        0.00000000     0.00000000     9.28715084
PRIMCOORD
24 1
Ti      2.80813387     3.09250474     3.44546672     1.91966604    -2.32834252     1.03734744
Ti      3.92248013     2.12604001     5.84168417    -1.91966604     2.32834252    -1.03734744
Ti      5.07592470     2.12604180     1.19807162    -3.74512733    -0.09847123     1.37472540
Ti      1.65468939     3.09250314     8.08907937     3.74512733     0.09847123    -1.37472540
Ti      2.00732029     0.48323251     1.19810885     1.91966604    -2.32834252    -1.03734744
Ti      4.72329374     4.73531239     8.08904214    -1.91966604     2.32834252     1.03734744
Ti      0.85387569     0.48323056     5.84164693     3.74512733     0.09847123     1.37472540
Ti      5.87673833     4.73531433     3.44550396    -3.74512733    -0.09847123    -1.37472540
O       2.18731688     1.83753831     4.73916199    -0.01776556     0.73419729    -0.89673247
O       4.54329713     3.38100648     4.54798890     0.01776556    -0.73419729     0.89673247
O       1.50513335     1.83755937     0.09561644     0.73815628    -0.70551663     0.17546269
O       5.22548071     3.38098547     9.19153419    -0.73815628     0.70551663    -0.17546269
O       3.74248352     0.77173410     0.09558631     0.01776556    -0.73419729    -0.89673247
O       2.98813049     4.44681069     9.19156432    -0.01776556     0.73419729     0.89673247
O       4.42466710     0.77171309     4.73919212    -0.73815628     0.70551663     0.17546269
O       2.30594686     4.44683176     4.54795877     0.73815628    -0.70551663    -0.17546269
O       1.16054854     3.17421471     2.50869114    -0.08108568    -0.37574861    -0.56921880
O       5.57006547     2.04433009     6.77845975     0.08108568     0.37574861     0.56921880
O       3.37826334     2.04428143     2.13491384     1.42027817    -0.78278499    -1.36995678
O       3.35235066     3.17426337     7.15223689    -1.42027817     0.78278499     1.36995678
O       0.35973487     0.56494233     2.13488418    -0.08108568    -0.37574861     0.56921880
O       6.37087908     4.65360247     7.15226655     0.08108568     0.37574861    -0.56921880
O       2.55153705     0.56499099     6.77848936    -1.42027817     0.78278499    -1.36995678
O       4.17907695     4.65355381     2.50866147     1.42027817    -0.78278499     1.36995678
