# total energy = -19514.95038824 eV

CRYSTAL
PRIMVEC
        5.93400000     0.00000000     0.00000000
        0.00000000     9.29699974     0.00000000
        0.00000000     0.00000000     4.64899994
PRIMCOORD
23 1
Ti      4.56411901     6.73073599     2.24105100     0.32244654     0.31466175     0.93902559
Ti      4.45048402     2.21926202     2.39423998    -1.30458054     0.00994786     0.44675968
Ti      1.63657198     7.11176901     2.31395500    -0.52896790     0.41936019    -0.54485090
Ti      1.34759501     2.52547001     2.26705598     1.38664684    -1.08940330     0.59467144
Ti      2.87479499     4.52398600     0.08205200     0.99469796    -0.77861723     0.50068062
Ti      2.99727100     9.24842498     4.39820401     0.92213832     1.45919646     1.61367714
Ti      0.00088500     4.70906199     0.04652002     0.71283656    -0.24310175    -0.76094757
Ti      0.08345099     0.07711700     0.21154998    -1.13785858     0.69496867     0.19937087
O       4.56252302     5.72511099     0.56514903    -3.29238444     0.92031335     2.21955114
O       4.47789800     0.99654898     0.97538501    -0.41758279    -1.24506951    -1.27565382
O       1.54537802     5.46043801     1.05094798     1.31510227     0.49928271    -0.79888884
O       1.43252102     0.94973801     0.97201299    -0.50655868     0.11843817     0.36049656
O       4.25078999     8.26893699     3.62372802     0.77021589    -0.25537157    -0.52469961
O       4.58338699     3.92483898     3.78551698    -2.45377435    -1.97803267    -1.43358929
O       1.41495800     8.63043400     3.80253902    -0.39102817    -3.01722128    -2.38532693
O       1.37831300     3.55122100     3.93066400     1.04362427     1.49480445    -0.55927248
O       2.66408899     1.59859002     3.28719500     2.50176478    -1.49937485     0.36801524
O       0.19235598     5.99577600     3.11911502    -0.15009129    -0.02349732     0.96864522
O       5.83780198     1.32928902     3.18863102     0.27645874     0.26010703     0.94657512
O       3.01248702     7.92435698     1.23455502    -1.11834570    -1.09375618     1.63860322
O       2.99514498     3.18031199     1.48189802    -0.81888972     1.51734172    -1.06344389
O       5.86690202     7.59640102     1.41422800     1.65616155     3.43174831    -1.75583425
O       5.75327899     3.30546500     1.48144399     0.21796792     0.08327421     0.30643602
