# total energy = -4990.15801087 eV

CRYSTAL
PRIMVEC
        3.00022406     0.00000000     0.00000000
        0.46891752     4.67745544     0.00000000
       -0.00000312    -0.00006100     4.70680305
PRIMCOORD
6 1
Ti      1.73456928     2.33869722     2.35340152     0.00000000     0.00000000     0.00000000
Ti      0.00000000     0.00000000     0.00000000     0.00000000     0.00000000     0.00000000
O       1.59149654     0.91155533     0.91728658    -0.35516101    -0.00199466    -0.02226293
O       1.87764208     3.76583911     3.78951642     0.35516101     0.00199466     0.02226293
O       0.14307146     1.42711716     3.27068906     0.35532787     0.00181006    -0.02202279
O       0.32584315     3.25027716     1.43611394    -0.35532787    -0.00181006     0.02202279
