# total energy = -19519.19010566 eV

CRYSTAL
PRIMVEC
        7.60600008     0.00000000     0.00000000
        0.00000000     7.60600008     0.00000000
       -1.89786986    -1.89786986     4.85670466
PRIMCOORD
23 1
Ti      3.89942900     6.63053702     1.21978198    -0.34234046    -0.47085761     0.40160929
Ti      3.71329503     2.81789002     1.13900101     0.35478306     1.00738610     0.95159263
Ti      0.07463198     6.64795499     1.16041199    -0.00264618    -0.77583452     0.35615294
Ti     -0.02841698     2.77633998     1.14954100     0.33485983     0.93836610     0.17746018
Ti      5.52576124     2.86489223     3.66503480     0.11002886    -0.09070084     0.55902745
Ti      5.74202021    -0.96321076     3.59272284    -0.61376703     0.10309073    -0.03499684
Ti      1.89161123     2.90550421     3.65099679     0.59437422    -0.14030438     0.90296945
Ti      1.88497625    -0.96133377     3.67021883     0.57259414     0.22490656    -0.99880633
O       3.97661198     4.70944601     0.77384801    -0.74102563     0.26026901     0.00952157
O       4.06120002     0.99458002     0.82912698    -0.62377274    -0.21124243    -0.14640073
O      -0.00398502     4.75355801     0.77748600     0.38439215     0.17446895    -0.16282391
O      -0.16704898     0.93941101     0.86963301     0.68958272    -0.42170298    -0.34540958
O       5.72552925     4.77851724     4.07369384     0.36010241    -0.32907279     0.07150909
O       5.65728523     0.91622823     4.07190681     0.32357500     0.56295842    -0.70139797
O       1.85357720     4.79688620     4.06258879    -0.52492382    -0.68743328     0.33993210
O       1.76085122     0.95823824     4.00432680    -0.21385210     0.26653582     0.44910555
O       3.74317322     3.00520723     3.30350080     0.30268452    -0.62917515    -1.00524823
O       3.80177822    -0.94361178     3.22983880     0.16532611     0.09912609    -0.42966389
O      -0.02348679    -0.96321076     3.30326680     0.80325715     0.11587401    -0.50876880
O       5.74614801     6.52901002     1.57984201     0.08075658     0.33088027     0.80852508
O       5.86988600     3.01961498     1.79607500    -0.81029323    -0.51880947     0.14981644
O       1.97250402     6.51330399     1.60136503    -0.87474824     0.67781786     0.37269723
O       1.87080398     2.93986601     1.71368300    -0.32894706    -0.48654726    -1.21640273
