# total energy = -4988.00981265 eV

CRYSTAL
PRIMVEC
        4.01538125     0.00000000     0.00000000
        1.36361462     3.77675016     0.00000000
       -2.68953456    -1.88840080     5.20728220
PRIMCOORD
6 1
Ti      1.02259520     2.83270748     1.30182060     0.00031059    -0.00031059    -0.00000000
Ti      1.66686540    -0.94435861     3.90546170    -0.00031059     0.00031059     0.00000000
O       0.34094548     0.94418234     0.84822377    -0.00060318    -0.00078881    -1.47322826
O       2.34851493     0.94416639     4.35905864     0.00060318     0.00078881     1.47322826
O      -0.34091292    -0.94415952     3.45186487    -0.00078881    -0.00060318    -1.47322826
O       3.03037327     2.83250821     1.75541755     0.00078881     0.00060318     1.47322826
