# total energy = -19961.13943424 eV

CRYSTAL
PRIMVEC
        7.60600008     0.00000000     0.00000000
        0.00000000     7.60600008     0.00000000
       -1.89786986    -1.89786986     4.85670466
PRIMCOORD
24 1
Ti      3.76425998     6.62651099     1.26144998     0.21667363    -0.30588554    -0.47926795
Ti      3.81465602     2.86445101     1.24524900    -0.56489883     0.29812724    -1.56982027
Ti     -0.00123002     6.59735702     1.17222101    -0.04937754     2.08486230     1.47011697
Ti      0.02721199     2.94495898     1.14203298    -0.47963536    -1.55695961     1.27580783
Ti      5.72904325     2.88345424     3.61669679     1.47784519     0.07943323    -0.35363532
Ti      5.67653622    -0.97560975     3.65415481     1.80071828     0.22136358     0.44637376
Ti      1.91609124     2.87640422     3.59374679    -1.42925055    -0.46675130     1.08788120
Ti      1.91433024    -0.98654277     3.63839782    -1.70959140     0.25848955     0.38319839
O       3.67266802     4.72231301     0.73259902     0.26938820    -0.64596445     0.88763641
O       3.62650001     0.82754802     0.82156901     0.72717484     2.30782562     0.21892026
O       0.05654698     4.82517300     0.79882301    -0.39941280    -0.93567621    -0.78868336
O       0.12137601     1.00845901     0.76923200    -0.91800810    -0.80682790    -0.12421441
O       5.93876921     4.78667721     4.05543082    -1.02754870    -0.97774719    -0.06251614
O       5.88546122     0.97756025     4.15036183    -0.92810868     0.53669124    -1.95868948
O       1.74365523     4.71572523     4.20682081     0.66385857    -0.00085206    -1.78081253
O       1.81185120     0.95942323     4.05231979     0.67986009    -1.08302901     0.26878142
O       3.79922325     2.90688425     3.19138280     0.08592784    -0.22697270     0.50488360
O       3.80842125    -1.07823775     3.25778581    -0.20741328     0.16217548     0.51634121
O      -0.01854179     2.75571424     3.15094281    -1.14418350     0.35939870     0.62356551
O      -0.02809778    -1.07480376     3.19544783     0.50707367     0.67378663    -0.23511539
O       5.71198300     6.57499902     1.60919002    -0.46423573     0.43534321    -0.06556058
O       5.64582298     2.99416198     1.60174598     0.26521350    -0.41644328    -0.03561005
O       1.87994298     6.61787301     1.68370199     0.16726421    -0.12733367     0.45110999
O       1.77418199     2.93995799     1.69908999     2.46066619     0.13294665    -0.68069107
