# total energy = -19957.20799895 eV

CRYSTAL
PRIMVEC
        5.93400000     0.00000000     0.00000000
        0.00000000     9.29699974     0.00000000
        0.00000000     0.00000000     4.64899994
PRIMCOORD
24 1
Ti      4.33409799     7.08342099     2.22627600     3.37820352    -0.83029796    -0.60436579
Ti      4.34283302     2.20725700     2.41662301     2.65741119     2.94892427    -0.23147239
Ti      1.54966102     6.90826602     2.60089798    -2.49854576    -0.30691990    -1.22260731
Ti      1.52650301     2.33384498     2.25255901    -2.77985232     1.45731775    -0.43689152
Ti      2.92398202     4.51428100     0.04618098     2.19866374     2.69068385     0.73475625
Ti      2.93248701     0.20796698     4.51615899     0.39776883    -3.94927223     0.58447316
Ti      0.09946299     4.57057402     4.64393000    -2.43741673     2.18163044     0.97506013
Ti      5.78053098     0.36495402     4.56667600     0.50877085    -3.76203054     0.20171057
O       4.43604600     5.42740201     0.91061202    -0.05198438    -0.54005682    -0.07251928
O       4.36036799     1.05760000     0.79992301     1.47119195     0.40803037     0.00246749
O       1.54300699     5.32445697     1.05731001    -0.01212893     0.29940585    -0.90331269
O       1.72316602     1.03510198     0.86033701    -2.89748856     0.02953813    -0.69848260
O       4.46780198     8.46051900     3.71925002     1.36515447     1.82324578     1.09310800
O       4.66641099     3.48303900     3.78149899    -1.33909684    -0.43995937    -0.39867180
O       1.88098498     8.35587399     3.66090299    -2.41488846    -0.23817037     0.46957977
O       1.49524599     3.66576702     3.75956798     0.16960803    -0.87412758    -0.43850361
O       3.06136299     5.88229298     3.32916500    -1.12726383     0.67333180    -0.61501427
O       2.93762601     1.26350901     3.01882598     0.02787128     0.37338834     0.47757102
O       5.72859599     6.27099098     3.39664102     2.69885019    -1.80062957     0.26011423
O       0.07228598     1.22965399     2.92988600    -0.61873646    -0.68371803     1.81761686
O       2.88460599     7.82765100     1.42093299    -0.18042646    -0.12488907     0.07606971
O       2.93462600     3.24721301     1.61097901     1.88099123     0.23617571    -1.00527728
O       0.00380097     7.79297000     1.44025198    -0.16292984     0.76474947    -0.19410859
O       0.06630199     3.15781402     1.39676002    -0.23372648    -0.33635055     0.12869944
