# total energy = -19069.17804966 eV

CRYSTAL
PRIMVEC
        5.17600016     0.00000000     0.00000000
        0.00000000     5.50899976     0.00000000
        0.00000000     0.00000000     9.26300011
PRIMCOORD
22 1
Ti      1.77396799     3.31853398     3.28782202    -1.28806068     0.83782282    -0.12954662
Ti      3.86774498     2.49330598     6.24669698    -0.99477972     1.42236925     0.52346291
Ti      4.15345598     2.29322703     1.47821802     2.11688335     0.49241606    -1.86777678
Ti      1.54320802     2.05702299     8.08619700    -0.46029449     0.29270889     2.89857459
Ti      1.68823101     0.67671599     1.40484802    -0.96707556    -0.59528876    -4.47841497
Ti      3.16389601     5.31869799     7.62960398     2.27866982    -1.18287450     3.60977824
Ti      0.53704903     0.07927499     5.88536300     4.28225309     0.06560943     3.53461330
Ti      4.23382600     5.08227599     3.29641099     0.95809135     0.68873014    -0.28882112
O       2.84163997     3.01915301     4.73669499     0.25515869     1.21646212     0.37603040
O       0.92150000     2.37330901     0.77647802    -0.22351816    -0.22149316    -2.74272094
O       5.08747002     4.33787299     6.90329101    -2.37195847    -2.10111605     0.29747058
O       3.18190200     1.61214400     0.08640501    -0.19381806    -0.80034614     0.06468127
O       1.56621400     5.42790202     8.69552598     0.16989547     1.98083980     1.60059742
O       4.73864199     0.96300501     4.87997100    -5.57206804     4.99371283    -2.51585160
O       0.63117998     4.75707302     4.30946500     2.94353369    -3.70761955    -1.35716425
O       5.17440300     3.66038497     2.37502201    -1.57033681     0.33494468     1.10295764
O       4.82429700     1.59030898     7.51249801     1.67269015    -1.21005287    -0.33777238
O       2.62490300     1.77173697     2.48763701     0.95579279    -0.06644967     3.00368955
O       2.84218497     3.58573299     7.97623000    -0.63013571    -2.31161363    -2.05404531
O       5.05513401     0.70657599     1.88737898    -1.29432826    -1.89571852     2.16248008
O       2.26258401     0.91495699     6.59380402    -0.48015498     1.70930678    -3.40202197
O       2.60736400     4.63654798     2.24432401     0.41356055     0.05764981    -0.00020029
