# total energy = -4948.67830181 eV

CRYSTAL
PRIMVEC
        5.10857894     0.00000000     0.00000000
       -0.00000706     2.45968600     0.00000000
       -2.55431809    -1.22991172     5.50358382
PRIMCOORD
6 1
Ti     -0.00021825     1.84484606     1.37589567    -0.02294993    -0.02203950    41.46425545
Ti      2.55447198    -0.61507194     4.12768747     0.02294993     0.02203950   -41.46425545
O       0.00005436     0.61490970     0.89648870     0.02134659     0.02126535   -33.35340130
O       2.55419922     0.61486431     4.60709449    -0.02134659    -0.02126535    33.35340130
O      -0.00002087    -0.61493767     3.64828051    -0.00145499     0.00062504    -1.27504961
O       2.55427439     1.84471169     1.85530268     0.00145499    -0.00062504     1.27504961
