# total energy = -19518.98996285 eV

CRYSTAL
PRIMVEC
        7.60600008     0.00000000     0.00000000
        0.00000000     7.60600008     0.00000000
       -1.89786986    -1.89786986     4.85670466
PRIMCOORD
23 1
Ti      3.76578099     6.70104899     1.27771101     0.57533134     0.41503148    -0.30487844
Ti      3.82383603     2.93157402     1.18723700    -0.53771326    -0.20053378     0.96582755
Ti      0.03217599     6.64588099     1.23946197    -0.73636396     0.04871882    -0.04250575
Ti     -0.05814700     2.84023300     0.96154898     0.83745103    -0.35059447     2.21638739
Ti      5.65619322     2.76075920     3.63239181    -0.56804072     0.94792289    -0.00690161
Ti      5.65425722    -1.09275779     3.58523683     0.91806106    -0.24657583     0.30435111
Ti      2.10533725     2.91760924     3.69807483    -0.69465962     0.31359397    -0.56930879
Ti      1.91164424    -0.92592276     3.70236884    -0.88500952     0.03778752     0.04651307
O       3.96731101     4.85796998     0.97810900    -0.37737304    -1.56860594    -1.13987767
O       3.68361601     1.00557500     0.83316402     0.26659341     0.37475822    -0.16897065
O      -0.22792199     4.68763100     0.73889702     0.68123563     0.69616912     0.43125181
O      -0.14970498     0.91917501     0.66439802     0.81693645    -0.55376440     1.06662023
O       5.59139822     4.66921224     4.11772482     0.95159700     0.07008958    -1.13404486
O       5.78937623     0.91587125     3.99242983     0.36203434    -0.03191074    -1.16153382
O       1.93229120     4.79963422     4.08968081    -0.21832428    -0.66803070     0.36545931
O       1.79103120     1.04219221     3.98133780     0.09382345     0.33719131     1.16757797
O       3.84373923     2.75331421     3.25021879    -0.00054173     0.09378874    -0.71970424
O       3.78568023    -0.96091678     3.26502480     0.11679909     0.41975537    -0.02589899
O       0.05910121    -0.96527878     3.21485181    -0.61856908    -0.26792396     0.30101767
O       5.74739200     6.67100500     1.69506501    -0.60378266     0.23360563    -0.46581645
O       5.76873599     2.71854102     1.66579400     0.17456691     0.34036405    -0.60107709
O       1.91753600     6.59644202     1.67149900    -0.29212988     0.10624574    -0.55098504
O       1.78346100     3.05760700     1.72332001    -0.26192172    -0.54708210     0.02649754
