# total energy = -19934.96487179 eV

CRYSTAL
PRIMVEC
        5.88871912     0.00000000     0.00000000
        2.68444765     5.66337038     0.00000000
        0.00000000     0.00000000    10.83074611
PRIMCOORD
24 1
Ti      3.72517858     3.35610801     4.01812953     0.89770152    -3.10367439     0.81410798
Ti      4.84798799     2.30726229     6.81261664    -0.89770152     3.10367439    -0.81410798
Ti      6.17228710     2.30726421     1.39720029    -2.29027964    -0.85639853     0.71910800
Ti      2.40087958     3.35610631     9.43354606     2.29027964     0.85639853    -0.71910800
Ti      2.38295490     0.52442291     1.39724370     0.89770152    -3.10367439    -0.81410798
Ti      6.19021172     5.13894756     9.43350265    -0.89770152     3.10367439     0.81410798
Ti      1.05865575     0.52442082     6.81257323     2.29027964     0.85639853     0.71910800
Ti      7.51451092     5.13894964     4.01817300    -2.29027964    -0.85639853    -0.71910800
O       2.80905637     1.99416896     5.52684684     1.59542590     2.06609016    -1.06045729
O       5.76411020     3.66920134     5.30389939    -1.59542590    -2.06609016     1.06045729
O       2.02582767     1.99419184     0.11150862     0.42188142    -1.07248826     1.40091184
O       6.54733899     3.66917857    10.71923732    -0.42188142     1.07248826    -1.40091184
O       4.42188649     0.83751613     0.11147343    -1.59542590    -2.06609016    -1.06045729
O       4.15128010     4.82585423    10.71927245     1.59542590     2.06609016     1.06045729
O       5.20511526     0.83749329     5.52688197    -0.42188142     1.07248826     1.40091184
O       3.36805127     4.82587708     5.30386420     0.42188142    -1.07248826    -1.40091184
O       1.84678398     3.44478294     2.92565474     0.63970716     2.36857850     2.22600306
O       6.72638254     2.21858738     7.90509150    -0.63970716    -2.36857850    -2.22600306
O       4.20991133     2.21853467     2.48975280     1.11215680     1.54647130     0.93480538
O       4.36325525     3.44483563     8.34099320    -1.11215680    -1.54647130    -0.93480538
O       0.50456025     0.61309767     2.48971820     0.63970716     2.36857850    -2.22600306
O       8.06860627     5.05027265     8.34102779    -0.63970716    -2.36857850     2.22600306
O       3.02103152     0.61315036     7.90512597    -1.11215680    -1.54647130     0.93480538
O       5.55213505     5.05021994     2.92562014     1.11215680     1.54647130    -0.93480538
