# total energy = -39026.83406111 eV

CRYSTAL
PRIMVEC
        7.60600008     0.00000000     0.00000000
        0.00000000     7.60600008     0.00000000
       -3.79573973    -3.79573973     9.71340985
PRIMCOORD
46 1
Ti      2.03485846     4.23351643     6.06306760     0.30836434     2.14961556     0.63368898
Ti      3.81414298     7.03682598     1.27017399     0.96126821     1.76959095    -0.10659695
Ti      2.01309943     0.07109047     5.98394264    -1.76413481    -0.87528380     3.09969612
Ti      3.79721799     3.52682101     1.48757599    -1.16822538    -1.92409039    -2.19518555
Ti     -1.75044955     4.47742544     6.00709563    -1.22719468     2.02943187     2.45270220
Ti     -0.01197899     6.91049300     1.13056799    -0.26386316     0.87097746    -0.88265336
Ti     -2.09687956     0.79521243     6.07010963     1.67918861    -1.60652870     1.09757298
Ti     -0.08679100     3.28977399     1.39554497     0.82501820    -0.22300394    -3.72297341
Ti      3.74354946     1.17612046     8.42308061     0.16909200    -0.42351021     2.23973610
Ti      5.56438800     2.63445099     3.69579000    -1.51298576    -1.66833007    -1.03766471
Ti      3.80085645    -2.70265453     8.53540261     0.87201953     2.57543360    -0.72197298
Ti      5.81238200    -1.22998002     3.54236501    -1.99476876     0.80009880     2.11814345
Ti      0.06234242     1.48462646     8.29933764    -0.68507378     0.60229605     1.26936259
Ti      1.69447101     2.13484697     3.31855399     6.60649033    -1.00428792    -0.89141491
Ti      0.03929945    -2.31626656     8.64383362    -0.77759753    -0.61263138    -0.12244652
Ti      1.91725400     6.20724602     3.47087898     0.65712510    -0.69631130    -0.59032730
O       2.45801346    -1.68767854     5.24175864    -0.58190848     0.76159626     1.31781273
O       4.40285299     1.29393400     0.55035000    -0.93638686    -0.46739356     2.11996302
O      -2.11883153     2.65264945     5.56901561     0.09765285    -0.00375253     1.28724950
O       0.25513101     5.07281599     0.72973998     0.51078531     0.53847945     1.33484707
O      -2.11262857    -1.16442856     5.72463965     0.88571143     1.11939163    -0.67525190
O      -0.19090302     1.22579401     0.69948400     0.09656579    -1.49547808     1.94086042
O       3.79060444     3.15552442     8.82339463     0.40225258    -1.84297643     1.58192014
O       5.43001699     4.47025498     4.24717502     0.16166280     1.90450218    -2.81231765
O       3.43490546    -0.57979956     9.29215962     0.17304276    -0.25398575    -2.58598155
O       5.79886401     0.79682198     4.25525000     1.06509633    -1.10408790    -1.90796160
O      -0.17109957     3.39004943     8.71027161    -0.32515237    -2.55706614     1.05749487
O       1.90669898     3.69509699     4.22848199     0.68964109     0.24395664     0.77499763
O       0.16088544    -0.23264955     9.28691860    -0.92962434     0.09225456     0.31780364
O       1.66112501     0.31329902     4.35702301    -0.87289268     2.85634883    -3.48049181
O       1.91238345     1.39940744     8.61165663    -0.25061863     0.43010587    -1.92037360
O       3.79250699     2.09310399     3.09198902     0.82437671     1.96838280    -0.03527066
O       1.77465443    -2.82881155     7.96838765     1.15919155     0.97130246    -1.40207681
O       4.02935498    -0.68411400     3.22713698    -1.12119423    -1.41556379    -1.42344448
O      -1.96422054     1.42026946     8.08316662    -1.04951724    -1.29128999    -0.92102734
O       0.08948102     2.45148299     3.19206401    -6.56469035     0.52833079    -0.26608716
O      -1.93992453    -2.24610956     8.28955860     0.37415401    -0.51398737    -0.47043261
O       0.04168001     6.05667901     3.44708400     0.47734348     0.35664942    -1.56307421
O       3.90882247     4.55283145     6.59152163    -1.46862521    -1.37351339     0.09352108
O       5.73127098     6.71841600     1.40811701     1.10138438    -0.42091777     1.49237193
O       3.55421545     0.89052345     6.39128662     0.87648219     0.25037232     0.79126963
O       5.60786801     3.52400203     1.85986499     1.15434399     0.01587580     0.68243582
O       0.03012447     4.62013444     6.08112361     1.20323327    -0.37983950     0.49164447
O       1.98648202    -0.36639201     1.80454401    -1.30469727    -0.21122880    -0.37290857
O      -0.05883054     1.09889646     6.52833961     1.76355888    -1.29838341    -0.96554550
O       1.89890800     2.76773497     1.31081602    -0.29589346     0.82844960     2.87838705
