# total energy = -19074.88640803 eV

CRYSTAL
PRIMVEC
        5.17600016     0.00000000     0.00000000
        0.00000000     5.50899976     0.00000000
        0.00000000     0.00000000     9.26300011
PRIMCOORD
22 1
Ti      1.96647500     3.42163898     3.28374598    -0.03131116     0.88121868     0.25792185
Ti      3.59860797     2.23730902     6.03416198    -0.70185794     0.45910175    -1.27869081
Ti      4.39598601     2.26420298     1.20159601     0.25956324    -0.17902264    -1.08213170
Ti      0.68864503     3.30398600     8.12664901     0.63309891    -0.65075699     0.26215672
Ti      1.80695002     0.52157001     1.28871298    -0.04938217     0.55337848    -1.91666530
Ti      3.17454798     4.99953701     7.98696902     0.95884237     0.37955307     0.08016523
Ti      0.52125002     0.14286902     6.06634199     1.24046338     0.50204073    -1.34223179
Ti      4.44374998     5.02793203     3.33536103     1.01807058    -0.14459607     1.68096165
O       3.61339102     3.43765898     4.38171902    -0.94769638    -0.04266079     1.06013230
O       0.92352299     1.97396899     0.19063499    -0.30447941     0.38036529    -0.69049161
O       4.33453298     3.71836698     9.13297501    -1.16637470    -0.22229098    -0.16778640
O       3.50601900     0.82194700     0.21628998    -0.04821874     0.82287056    -1.30730257
O       1.70698499     4.79765398     9.05708501    -2.06108885    -0.91105146     0.50207853
O       4.20810502     0.88837800     4.75909199     0.50633936    -1.29414520    -0.25591356
O       1.02087298     4.87117999     4.42907298    -0.15834479    -1.15380637    -0.02577300
O       0.24902102     3.59104000     2.33748000     0.02694054    -0.74983346     0.60296762
O       0.13649302     1.88457101     6.69580500    -0.43336140     1.05430978     1.12055736
O       2.62882600     1.92440800     2.25093301     0.64750326     1.54160317     0.96071028
O       2.29466798     3.51934701     7.06457598     0.61553055    -0.80360116    -0.89661702
O       0.06420100     0.69272800     2.01051699    -0.02808520    -0.27836059     1.56278933
O       2.42068000     0.63837800     6.57913899     0.10959048     0.54094488     0.61175926
O       2.81663402     4.80198001     2.33434500    -0.08574169    -0.68526095     0.26140338
