# total energy = -4982.40922283 eV

CRYSTAL
PRIMVEC
        3.47117087     0.00000000     0.00000000
        0.00000000     2.92858697     0.00000000
        0.00000000    -0.00006615     4.59746750
PRIMCOORD
6 1
Ti      1.73558534     1.46426036     2.29873389     0.00000000     0.00000000     0.00000000
Ti      0.00000000     0.00000000     0.00000000     0.00000000     0.00000000     0.00000000
O       1.73558534     0.57072557     0.89597875     0.00000000    -3.52052390    -3.60785428
O       1.73558534     2.35779520     3.70148899     0.00000000     3.52052390     3.60785428
O       0.00000000     0.89350844     3.19471352     0.00000000     3.51957414    -3.60413030
O       0.00000000     2.03501229     1.40275427     0.00000000    -3.51957414     3.60413030
