# total energy = -19518.95207996 eV

CRYSTAL
PRIMVEC
        7.60600008     0.00000000     0.00000000
        0.00000000     7.60600008     0.00000000
       -1.89786986    -1.89786986     4.85670466
PRIMCOORD
23 1
Ti      3.70026700     6.71095201     1.21486201     0.77677426    -0.72572268     0.53321511
Ti      3.83660899     2.85404098     1.17245602     0.36683562     0.68742479     0.82152124
Ti     -0.07862902     6.66564999     1.22842498    -0.07276893    -0.54167327    -0.48412605
Ti      0.00238199     2.81159901     1.16911500    -0.69268939     0.56559817    -0.49098318
Ti      5.68703425     2.84771525     3.55830382    -0.62870978    -0.53892502     1.64091413
Ti      5.75314823    -0.99784276     3.61098183    -0.92766696     0.39767113     0.39639638
Ti      2.00524924     2.90104324     3.64203983     0.99459177    -0.53546766     1.42380238
Ti      1.88673121    -0.97258376     3.67183282     0.57958626     0.59953109    -0.45427245
O       4.02900201     4.71981000     0.76320801    -0.94421536     0.43911116     0.94010108
O       3.57675100     0.96983601     0.85590499     0.01103081    -0.20119610    -0.43880494
O      -0.25469597     4.76871000     0.73602200     0.63194731     0.57177165     0.81030763
O       0.12949602     0.96442400     0.74524699    -0.07560126    -1.61364345     0.14125235
O       5.89303020     4.67974223     3.90633582     0.35183606     0.85147049     0.49541217
O       5.76029122     0.94071924     4.14948181     0.20372992     0.46213848    -1.44093031
O       1.78731320     4.78679320     4.09756783    -0.32035829    -0.44938760     0.04426181
O       2.00782724     0.96917321     4.06804783    -0.61791191    -0.47623790    -0.08204496
O       3.83766523     2.87062121     3.30963883    -0.58069826     0.40384744    -1.23909915
O       3.85411920    -1.07483879     3.35463583    -1.20730307     0.27914349    -0.64631335
O      -0.00439979    -0.75088775     3.20120882     0.36194050    -0.51030966    -0.61442652
O       5.61195199     6.86629998     1.60302299     0.93316964    -0.26556189     0.12849658
O       5.69861799     2.53842998     1.66355801     0.61711281     0.36511915    -0.54375381
O       1.86937002     6.49959798     1.66321801     0.09878722     0.01681296     0.34145137
O       1.78076400     2.89344399     1.81233101     0.14058103     0.21848549    -1.28237752
