# total energy = -19069.77251309 eV

CRYSTAL
PRIMVEC
        5.17600016     0.00000000     0.00000000
        0.00000000     5.50899976     0.00000000
        0.00000000     0.00000000     9.26300011
PRIMCOORD
22 1
Ti      1.76844602     3.33462901     3.28080200    -0.15578680     1.32254125     1.22396949
Ti      3.86696302     2.47900798     5.91436499    -0.86110905    -2.37767970     0.65407732
Ti      4.24568502     2.28447401     1.34604002    -0.47840560    -0.54096493    -0.76834078
Ti      1.09266699     3.02080399     8.28424000    -2.21728111     2.25476961    -0.94146197
Ti      1.67721502     0.53420401     1.30385999     1.06597102    -0.69000001    -2.24448776
Ti      3.26927102     5.07864001     7.74349399    -1.81809688     0.61305741     2.12706852
Ti      0.72184799     0.12413498     6.07817598     0.37847372     1.58688649    -0.43442018
Ti      4.38334101     5.09085300     3.33518201    -1.64864595    -0.06784578     2.58404525
O       3.39616100     3.42177800     4.42087899    -0.39623311     0.11715982     0.45862352
O       0.77487499     2.01475702     0.52047599     0.64904515     1.16664492    -1.48300874
O       4.51026697     3.90278700     8.33769802     2.12670522    -1.49575756     1.31977705
O       3.23253702     0.46839701     0.36355398     1.63268659     2.44147367    -0.92737489
O       1.51806401     5.15008000     8.64314902    -1.45315154    -2.91045541    -1.11102114
O       4.20498499     0.68891501     4.90988697     0.98453310     1.28016739    -0.28449961
O       0.79161800     4.84965501     4.40843401     1.46364498    -1.77449327     0.55232793
O       5.17359701     3.61981401     2.37438800     0.14278755    -1.20773913    -0.05190339
O       0.32264598     1.83378698     6.89286600    -1.57257392     0.50004838    -0.31192044
O       2.57880600     1.95713301     2.40588002    -0.00513938    -0.40441179    -0.43578158
O       2.56789298     3.20005199     7.20462798     0.16462780     1.52191726    -1.21931450
O       4.88612300     0.61064001     1.95608100     0.96375909     0.05506354     1.47158147
O       2.61992799     0.90261901     6.55454198    -0.27957723    -1.11824414     0.04193342
O       2.41426600     4.85831098     2.55903398     1.31376684    -0.27213749    -0.21986874
