# total energy = -19518.33744840 eV

CRYSTAL
PRIMVEC
        5.93400000     0.00000000     0.00000000
        0.00000000     9.29699974     0.00000000
        0.00000000     0.00000000     4.64899994
PRIMCOORD
23 1
Ti      4.49680899     7.01927798     2.28813698     0.56315896    -0.43843522     0.09677456
Ti      4.51548000     2.28209599     2.36769301    -0.24015347     0.56209478    -0.38631071
Ti      1.46042300     7.06265300     2.27816601    -0.50256704    -0.32432524    -0.03899079
Ti      1.49236700     2.23480501     2.29245099    -0.07553930     1.03640461     0.09800483
Ti      3.00710402     4.51711098     0.08251598    -0.29298657    -0.33306803     0.65101796
Ti      2.93819900     9.26772402     4.52626998     0.24569008    -0.52575608     0.16508108
Ti      0.03741701     4.64087898     0.00790898     0.23771837     0.47002971    -0.18545040
Ti      5.89566101     0.10093701     0.06318800    -0.44079857    -0.52155695    -0.43636368
O       4.46315999     5.63434698     0.89949898    -0.91071773    -0.65526260    -0.28916000
O       4.46030402     0.98443500     0.93638602    -0.36136457    -0.92576357    -0.64373685
O       1.42600801     5.58820299     0.94406200     0.79463469    -0.18102141    -0.11055208
O       1.43370802     0.94217602     0.88926401     0.59692579    -0.00461230     0.38559800
O       4.47598798     8.37342902     3.72379099    -0.37518400     0.39402582     0.43259212
O       4.39141900     3.67841298     3.68008201    -0.31770851     1.30195210     1.15995568
O       1.42543100     8.52027798     3.65224797     0.25684559    -0.93813110     0.37476516
O       1.45994500     3.70879099     3.77148198     0.57021947     0.32539354    -0.16745832
O       2.93561799     1.36624602     3.25411401     0.01491575     0.36226857    -0.37738743
O       5.88665398     6.05829802     3.29836799     0.08611605     0.10111227    -0.39493188
O       0.01001902     1.42996398     3.23880200     0.17536344    -0.39217514     0.42589800
O       2.94042800     7.86174901     1.41304698    -0.01599921    -0.21555803     0.37150963
O       2.99510302     3.23930101     1.38572000    -0.49659745    -0.25821907     0.45317407
O       5.93345902     7.84670398     1.48992998    -0.12023717     1.27199103    -1.22551138
O       5.86734600     3.26598901     1.48071399     0.60826487    -0.11138769    -0.35851784
