# total energy = -19943.55001814 eV

CRYSTAL
PRIMVEC
        4.78544419     0.00000000     0.00000000
        1.00857143     4.99230001     0.00000000
        0.00000000     0.00000000     8.60846676
PRIMCOORD
24 1
Ti      2.33217177     2.95843236     3.19367988     2.28885936    -0.67374549     0.32460652
Ti      3.46184362     2.03386777     5.41478722    -2.28885936     0.67374549    -0.32460652
Ti      4.53802960     2.03386956     1.11051928    -3.68030620    -0.36309852     2.10584894
Ti      1.25598581     2.95843077     7.49794792     3.68030620     0.36309852    -2.10584894
Ti      1.82788617     0.46228254     1.11055379     2.28920826    -0.67318448    -0.33269522
Ti      3.96612923     4.53001773     7.49791340    -2.28920826     0.67318448     0.33269522
Ti      0.75170013     0.46228061     5.41475270     3.68000975     0.36389531     2.11584617
Ti      5.04231527     4.53001966     3.19371439    -3.68000975    -0.36389531    -2.11584617
O       1.86975836     1.75787372     4.39283482    -1.85791840    -1.10902751    -0.72087846
O       3.92425703     3.23442641     4.21563227     1.85791840     1.10902751     0.72087846
O       1.23326595     1.75789383     0.08862900     1.74614582    -1.38511009    -0.37254579
O       4.56074949     3.23440635     8.51983785    -1.74614582     1.38511009     0.37254579
O       3.41997141     0.73827644     0.08860106     1.85770448     1.10863953    -0.72110600
O       2.37404398     4.25402369     8.51986580    -1.85770448    -1.10863953     0.72110600
O       4.05646387     0.73825638     4.39286277    -1.74637850     1.38554615    -0.37245451
O       1.73755147     4.25404380     4.21560433     1.74637850    -1.38554615     0.37245451
O       0.78733652     3.03659981     2.32536172    -0.90379632    -1.44497388    -2.11291614
O       5.00667886     1.95570032     6.28310538     0.90379632     1.44497388     2.11291614
O       2.96168944     1.95565370     1.97889921     0.75272184    -2.19636852    -1.86177968
O       2.83232595     3.03664644     6.62956774    -0.75272184     2.19636852     1.86177968
O       0.28305091     0.54044984     1.97887171    -0.90401126    -1.44551536     2.11302798
O       5.51096448     4.45185034     6.62959524     0.90401126     1.44551536    -2.11302798
O       2.32804033     0.54049642     6.28313284    -0.75217651     2.19637880    -1.86001642
O       3.46597506     4.45180371     2.32533421     0.75217651    -2.19637880     1.86001642
