# total energy = -19961.61546047 eV

CRYSTAL
PRIMVEC
        5.27926755     0.00000000     0.00000000
        0.00002894     5.61873715     0.00000000
        0.00000000     0.00000000     9.44872808
PRIMCOORD
24 1
Ti      1.91349772     3.32965844     3.50541079     0.00347099    -0.16257220     0.15517796
Ti      3.36579877     2.28907877     5.94331756    -0.00347099     0.16257220    -0.15517796
Ti      4.55303907     2.28908070     1.21891562     0.00786295     0.16229426    -0.15578603
Ti      0.72625742     3.32965672     8.22981283    -0.00786295    -0.16229426     0.15578603
Ti      1.91348336     0.52028997     1.21895352     0.00379701    -0.16206595    -0.15574283
Ti      3.36581313     5.09844740     8.22977494    -0.00379701     0.16206595     0.15574283
Ti      0.72624306     0.52028788     5.94327967    -0.00814706    -0.16275038    -0.15571121
Ti      4.55305343     5.09844949     3.50544869     0.00814706     0.16275038     0.15571121
O       1.67093170     1.97845292     4.82161371     0.30879063     0.27090413     0.02188987
O       3.60836479     3.64028434     4.62711464    -0.30879063    -0.27090413    -0.02188987
O       0.96875332     1.97847555     0.09727995    -0.30880092     0.27058145     0.02129800
O       4.31054322     3.64026171     9.35144813     0.30880092    -0.27058145    -0.02129800
O       3.60835043     0.83091571     0.09724930    -0.30869422    -0.27079923     0.02147798
O       1.67094606     4.78782150     9.35147878     0.30869422     0.27079923    -0.02147798
O       4.31052886     0.83089308     4.82164437     0.30863174    -0.27064856     0.02143530
O       0.96876757     4.78784418     4.62708398    -0.30863174     0.27064856    -0.02143530
O       0.19182558     3.41763446     2.55233724     0.10365818    -0.05920379     0.07493509
O       5.08747091     2.20110275     6.89639111    -0.10365818     0.05920379    -0.07493509
O       2.83146359     2.20105038     2.17205697     0.10360444     0.05943930    -0.07550047
O       2.44783290     3.41768682     7.27667121    -0.10360444    -0.05943930     0.07550047
O       0.19181122     0.60826583     2.17202680     0.10367283    -0.05960925    -0.07556115
O       5.08748527     5.01047138     7.27670139    -0.10367283     0.05960925     0.07556115
O       2.44781854     0.60831819     6.89642123    -0.10385127    -0.05927809    -0.07498779
O       2.83147795     5.01041901     2.55230707     0.10385127     0.05927809     0.07498779
