# total energy = -19958.64831651 eV

CRYSTAL
PRIMVEC
        5.93400000     0.00000000     0.00000000
        0.00000000     9.29699974     0.00000000
        0.00000000     0.00000000     4.64899994
PRIMCOORD
24 1
Ti      4.40573399     7.02209998     2.37704801     1.98915938    -2.36226001    -1.56618164
Ti      4.49942302     2.23726600     2.30013797    -0.70377779     0.98863016     0.37898203
Ti      1.56912300     6.96563200     2.30545203    -3.44013139    -1.10367112     0.12898124
Ti      1.47132199     2.53216198     2.29900501     0.72174518    -0.74045099    -0.93704584
Ti      2.92749300     4.81387702     0.01748301     0.82591552    -2.25666605     1.87375023
Ti      3.09305097     9.05694002     4.58526600    -2.27253414     3.16750154    -0.90465044
Ti      5.92377000     4.63081900     4.46813002    -1.07214116    -1.23055717     2.07112258
Ti      0.01991500     9.19862098     0.22267202     3.27070772     2.16367410    -0.18112220
O       4.43350399     5.68363101     0.92386500    -0.75774732     0.25054304    -0.19461947
O       4.48990402     0.79092800     0.86928201    -1.69209684     0.37020043     0.26256784
O       1.34518799     5.45128600     1.02855198     1.27291817     1.14401175    -0.49804369
O       1.25048198     1.02224498     1.07257497     0.28787624    -2.26317789    -2.29322047
O       4.53043402     8.37121399     3.74585599    -0.62066993    -0.77331921    -0.79575055
O       4.40401400     3.71844498     3.87557501    -0.75477281     0.55886008    -0.86495413
O       1.47025099     8.37515699     3.73830902     0.97810740     0.22639189     0.41392077
O       1.43482998     3.75905499     3.73084799     0.85276324     0.54899912     0.58758728
O       2.90613298     5.96893300     3.01738498     1.63947817     0.14871858     1.75609625
O       2.86347298     1.40948700     3.09658498     1.10283526    -0.52126256     0.90022763
O       0.19567202     6.07613198     3.42338098    -1.49047600     1.98853177    -2.15947755
O       5.91515701     1.53670301     3.11096997    -0.65316637    -1.12367560     1.71011668
O       2.92650498     7.86173298     1.41572102     1.24463576     0.79159411    -0.31314120
O       2.92563400     3.42186399     1.40951398     0.09623746    -0.42480836    -0.17315306
O       0.00057199     7.74607198     1.39000301    -0.54590377     0.24110915     0.62226170
O       5.84707798     3.26776101     1.37938099    -0.27896223     0.21108276     0.17574654
