# total energy = -19961.84366640 eV

CRYSTAL
PRIMVEC
        7.60600008     0.00000000     0.00000000
        0.00000000     7.60600008     0.00000000
       -1.89786986    -1.89786986     4.85670466
PRIMCOORD
24 1
Ti      3.79791301     6.52231001     1.23883199     0.56296484     1.26178349     0.12376807
Ti      3.78468897     2.80850798     1.23084797     0.11682737    -0.94143291    -0.29657892
Ti      0.03032403     6.71589701     1.20920002    -0.57551363    -0.49645964     0.05672061
Ti      0.00146101     2.89463300     1.17406699    -0.01388293     0.53849642    -0.31441544
Ti      5.70187423     2.93692723     3.58082884    -0.54703865    -0.47463045     0.48606929
Ti      5.71249223    -0.90278179     3.65118480    -0.04836735     0.47142402    -0.15421431
Ti      1.84863124     2.82056724     3.62229580     0.56544802    -0.33077486    -0.16259894
Ti      1.89551624    -0.99430976     3.62103779     0.04777780     0.11176410     1.26505702
O       3.79878599     4.71293599     0.85076800    -0.00632543    -0.67402651    -0.38761451
O       3.81341499     0.86119697     0.84460700    -0.03083757     0.21471316    -0.62644078
O       0.08630003     4.82199899     0.68630601    -0.26377009     0.08230053     1.13007945
O       0.01575001     1.06301502     0.74232799     0.06104393    -1.55075116     0.84886828
O       5.70087721     4.81105921     4.09594283     0.12530019     0.21784502    -0.35685640
O       5.74065324     1.04547025     4.10510479    -0.32074524    -0.34036096    -1.16286103
O       1.87674622     4.63978924     4.10037083    -0.34761919     1.16531823    -0.17122268
O       1.87039720     0.89181522     4.06478281     0.05392942     0.23994906     0.21864232
O       3.71146524     2.93437321     3.28315282     1.18973035    -0.33920114    -0.49778581
O       3.81436021    -0.98036679     3.24229981    -0.58432995     0.04971050     0.05675532
O      -0.05043075     2.86864024     3.09879181     0.76144945     0.27217014     1.03558314
O      -0.00886880    -0.85289477     3.21894182     0.77636186    -0.27469779     0.15003061
O       5.73861400     6.59948098     1.74589497    -0.11888400     0.02803429    -1.45420286
O       5.67931001     2.78894001     1.61929598    -0.15056771     0.40067778    -0.16380247
O       1.89825601     6.55165400     1.65577699    -0.08797213     0.24515632     0.05077802
O       1.94758099     2.78978002     1.60908302    -1.16497936     0.12299236     0.32624174
