# total energy = -19950.25303631 eV

CRYSTAL
PRIMVEC
        5.41204530     0.00000000     0.00000000
        1.95613897     5.41772405     0.00000000
        0.00000000     0.00000000     9.84279854
PRIMCOORD
24 1
Ti      3.12081234     3.21053817     3.65160807     1.39085497    -2.83867686     1.09638821
Ti      4.24737213     2.20718574     6.19119058    -1.39085497     2.83867686    -1.09638821
Ti      5.46447317     2.20718758     1.26975195    -3.03637394    -0.34343292     0.93618632
Ti      1.90371133     3.21053649     8.57304681     3.03637394     0.34343292    -0.93618632
Ti      2.14274299     0.50167629     1.26979142     1.39085497    -2.83867686    -1.09638821
Ti      5.22544150     4.91604773     8.57300734    -1.39085497     2.83867686     1.09638821
Ti      0.92564187     0.50167429     6.19115112     3.03637394     0.34343292     0.93618632
Ti      6.44254263     4.91604977     3.65164754    -3.03637394    -0.34343292    -0.93618632
O       2.40173634     1.90767268     5.02270476     0.89807895     1.54919462    -0.96147467
O       4.96644813     3.51005123     4.82009389    -0.89807895    -1.54919462     0.96147467
O       1.68190550     1.90769453     0.10133715     0.36847522    -0.66401515     0.69684506
O       5.68627903     3.51002942     9.74146122    -0.36847522     0.66401515    -0.69684506
O       3.98837876     0.80118924     0.10130521    -0.89807895    -1.54919462    -0.96147467
O       3.37980571     4.61653467     9.74149316     0.89807895     1.54919462     0.96147467
O       4.70820965     0.80116738     5.02273670    -0.36847522     0.66401515     0.69684506
O       2.65997476     4.61655654     4.82006195     0.36847522    -0.66401515    -0.69684506
O       1.38646670     3.29536680     2.65878545     0.29583818     0.79096881     0.68614053
O       5.98171777     2.12235711     7.18401320    -0.29583818    -0.79096881    -0.68614053
O       3.66895174     2.12230664     2.26264516     1.41033443     0.35451181    -0.45850011
O       3.69923273     3.29541726     7.58015332    -1.41033443    -0.35451181     0.45850011
O       0.40839733     0.58650481     2.26261372     0.29583818     0.79096881    -0.68614053
O       6.95978714     4.83121910     7.58018477    -0.29583818    -0.79096881     0.68614053
O       2.72116336     0.58655527     7.18404454    -1.41033443    -0.35451181    -0.45850011
O       4.64702111     4.83116863     2.65875405     1.41033443     0.35451181     0.45850011
