# total energy = -19073.63989017 eV

CRYSTAL
PRIMVEC
        5.17600016     0.00000000     0.00000000
        0.00000000     5.50899976     0.00000000
        0.00000000     0.00000000     9.26300011
PRIMCOORD
22 1
Ti      1.85200501     3.24005202     3.18221200    -0.59003368     0.19505270     2.97631218
Ti      3.43502098     2.23862800     6.01096000     0.24334781     0.41367214    -0.87441066
Ti      4.53914301     2.20399499     1.31269301    -1.27859491    -0.83972466    -2.93334826
Ti      0.64061198     3.35998502     8.05233098     1.59364798     0.61451857     1.20789134
Ti      1.85885400     0.60041599     1.34233901    -0.43807603    -1.97393125    -3.25874231
Ti      3.30295897     5.00798300     8.00676999    -0.93134416     0.24166630     1.85705477
Ti      0.67529801     0.50784701     5.92611902    -0.02328238    -0.08796596    -1.51705813
Ti      4.44858999     4.83631398     3.49056501    -0.37085580     1.43417704     1.58026332
O       3.24821299     3.50144902     4.57209700     0.11980085    -0.17440699     0.09735743
O       0.77858801     2.02033900     0.11803902     0.83148581    -0.74223971    -0.02275041
O       4.40623602     3.93395501     9.14518800    -0.48959710    -0.33807602    -0.28476444
O       3.35722298     0.90517600     0.18581302     0.65528779     0.44511032    -1.32393119
O       1.73513400     4.79638301     8.99475899    -1.45498525     0.00530779     0.13570622
O       4.48073698     1.07165399     4.65323601     0.09079674    -1.91318531    -0.18823850
O       0.91576600     4.62799399     4.38395998    -0.64307119     0.71198887     1.17747338
O       0.01431398     3.31686099     2.58676900     0.63565407     0.25365999     0.15808536
O       0.05985799     2.43843300     6.47904601     0.47329502    -0.85143321     0.82949347
O       2.75494402     1.93427001     2.19513598    -0.04717847     0.11446093     1.67601587
O       2.47926400     3.19478001     7.39076401     0.79445292     0.12210533    -1.40516471
O       5.16660599     0.61537398     2.00425201     0.82660406    -1.43273800     1.46531749
O       2.60125301     0.51789598     6.42617602    -1.15779775     0.34174602     0.27886272
O       2.63427700     4.45913998     2.30307798     1.16044445     3.46023486    -1.63142470
