# total energy = -19909.63529448 eV

CRYSTAL
PRIMVEC
        6.56824314     0.00000000     0.00000000
        2.05106367     6.68293215     0.00000000
        0.00000000     0.00000000    11.89323908
PRIMCOORD
24 1
Ti      3.59613063     3.96029944     4.41230687    -0.30323088    -1.91895358     0.62158473
Ti      5.02317608     2.72263286     7.48093227     0.30323088     1.91895358    -0.62158473
Ti      6.50029132     2.72263516     1.53426518     0.13338888    -0.67020354    -0.13203828
Ti      2.11901549     3.96029739    10.35897410    -0.13338888     0.67020354     0.13203828
Ti      2.57059894     0.61883347     1.53431287    -0.30323088    -1.91895358    -0.62158473
Ti      6.04870779     6.06409902    10.35892641     0.30323088     1.91895358     0.62158473
Ti      1.09348367     0.61883098     7.48088459    -0.13338888     0.67020354    -0.13203828
Ti      7.52582307     6.06410152     4.41235456     0.13338888    -0.67020354     0.13203828
O       2.80110478     2.35317406     6.06902887     1.81229210     2.02740944    -0.65897424
O       5.81820194     4.32975830     5.82421028    -1.81229210    -2.02740944     0.65897424
O       1.92749220     2.35320103     0.12244758    -0.62557174    -0.13422938     1.14396984
O       6.69181459     4.32973140    11.77079123     0.62557174     0.13422938    -1.14396984
O       4.79267022     0.98829214     0.12240900    -1.81229210    -2.02740944    -0.65897424
O       3.82663649     5.69464022    11.77082981     1.81229210     2.02740944     0.65897424
O       5.66628287     0.98826524     6.06906746     0.62557174     0.13422938     1.14396984
O       2.95302379     5.69466721     5.82417169    -0.62557174    -0.13422938    -1.14396984
O       1.48621267     4.06493822     3.21266059     0.55158591     1.98177363     2.00911963
O       7.13309405     2.61799414     8.68057856    -0.55158591    -1.98177363    -2.00911963
O       4.32624540     2.61793183     2.73399681     0.61374415     1.83941776     1.11304563
O       4.29306131     4.06500054     9.15924214    -0.61374415    -1.83941776    -1.11304563
O       0.46068088     0.72347207     2.73395882     0.55158591     1.98177363    -2.00911963
O       8.15862576     5.95946030     9.15928013    -0.55158591    -1.98177363     2.00911963
O       3.26752959     0.72353438     8.68061648    -0.61374415    -1.83941776     1.11304563
O       5.35177712     5.95939799     3.21262260     0.61374415     1.83941776    -1.11304563
