# total energy = -4986.75931063 eV

CRYSTAL
PRIMVEC
        2.98178040     0.00000000     0.00000000
        1.58661091     4.39434596     0.00000000
       -0.00001031    -0.00006190     4.74745596
PRIMCOORD
6 1
Ti      2.28419049     2.19714198     2.37372798     0.00000000     0.00000000     0.00000000
Ti      0.00000000     0.00000000     0.00000000     0.00000000     0.00000000     0.00000000
O       1.80009526     0.85638123     0.92520926    -2.88057558     1.43349210     1.51053498
O       2.76828572     3.53790272     3.82224676     2.88057558    -1.43349210    -1.51053498
O       0.48409090     1.34073572     3.29893818     2.88074347    -1.43230065     1.50945126
O       1.10250978     3.05354821     1.44851783    -2.88074347     1.43230065    -1.50945126
