# total energy = -19074.27968247 eV

CRYSTAL
PRIMVEC
        5.93400000     0.00000000     0.00000000
        0.00000000     9.29699974     0.00000000
        0.00000000     0.00000000     4.64899994
PRIMCOORD
22 1
Ti      4.39834800     6.74287098     2.27048002    -1.20042846    -0.53022260     0.04306394
Ti      4.38411599     2.48619400     2.08412200     0.17084344    -0.76076940     0.01088580
Ti      1.49388002     7.24250098     2.68873601     0.85911027     0.02583188     0.20223765
Ti      1.55741701     2.38568498     2.13152199    -0.07506441     0.14072116     0.64854507
Ti      3.05199597     4.53273399     4.41577502     0.38107234     0.30182140     0.53011565
Ti      3.02965501     0.20556202     4.59040298     1.08777502     0.89485967     0.37546630
Ti      5.85454399     4.53329100     4.40009201    -0.24661516    -0.61530532     0.22857681
Ti      5.90265398     9.11544998     0.38557601    -1.23503989     0.20206641     0.93855328
O       4.38616999     5.26892501     1.02996499     0.08235324     0.94951441     0.04142074
O       4.32475902     0.65501602     1.25692599     1.55319011     1.22745513    -0.12036572
O       1.49223402     0.69615802     1.31185898    -0.53948449     0.43509175    -0.17040687
O       4.47966698     8.46750202     3.97459598    -0.05901070     0.42748540    -1.07635649
O       4.40201800     4.03467702     3.27073901     0.63045761    -0.82479632     0.05673578
O       1.53185400     8.51046100     4.04262103    -0.83081810    -0.46618926    -1.65195702
O       1.52705700     3.89649100     3.51623201    -0.82721264    -0.07402209    -0.35515381
O       2.94374002     6.23150800     3.52749100    -0.67083063    -0.22600365    -0.30152315
O       3.11217301     1.76816699     3.29713898    -0.28363752    -1.63048830     0.76486491
O       5.93216699     6.24029298     3.50396103     0.43897078    -0.63051572    -0.03697299
O       2.94089198     7.77582598     1.53996401    -0.23437105    -0.81793481     0.43726922
O       2.95299898     2.91055901     0.93956400    -0.07398018     1.33647380     0.02210687
O       5.85720199     7.66557401     1.53888703     1.19848727     0.44906416    -0.48595873
O       0.08552198     3.11571500     1.11308900    -0.12576659     0.18586255    -0.10114698
