# total energy = -19961.07277938 eV

CRYSTAL
PRIMVEC
        7.60600008     0.00000000     0.00000000
        0.00000000     7.60600008     0.00000000
       -1.89786986    -1.89786986     4.85670466
PRIMCOORD
24 1
Ti      3.87567100     6.58549499     1.09695200    -0.66718815     0.33350229     1.95743119
Ti      3.76899802     2.70280900     1.22465798     0.73448911     0.12354207     0.21517185
Ti     -0.05225398     6.70351702     1.19336100     0.29482748     1.38487869     0.03808834
Ti      0.01627998     2.95472399     1.25236501    -0.83581530    -1.59349474    -0.47017575
Ti      5.66067022     2.93171721     3.68441883    -0.88800871     0.01874026    -1.11245839
Ti      5.70784721    -0.83153177     3.65963481    -1.21945514    -0.41516775     0.16464682
Ti      1.83499223     2.75897921     3.69631383     1.45823924    -0.28907335    -0.43501616
Ti      1.93163323    -0.98872779     3.63979580     1.33032501     0.21433855    -1.32972080
O       3.98510502     4.71647602     0.73565999    -0.82275306    -1.26206656     0.28232189
O       4.01645099     0.90368800     0.72537501    -0.64118066     0.28998661     0.03076352
O      -0.13505498     4.82621400     0.83267998     0.67659530    -0.35891894    -0.18827990
O      -0.15792898     1.04933399     0.76398600     0.65688522    -1.18559601     0.43238438
O       5.43101121     4.86461824     4.05494980     1.00850119    -1.43897087     0.20888781
O       5.55305721     0.98674523     4.14376580     0.85783578     1.70567176    -0.32161710
O       2.14637923     4.71431825     4.07657981    -0.88340541    -0.08163307    -1.31801482
O       2.00719524     0.86724124     4.04884680    -0.92365861     1.02417310     0.20123081
O       3.78060722     2.80152823     3.14931882     0.06695952     0.19333469     0.22799497
O       3.82088523    -0.81059276     3.18772883    -0.92484929    -0.41564701    -0.37196112
O       0.01353921     2.93085524     3.23716584     0.04683986     0.29921301     0.92454487
O      -0.02417075    -0.89222380     3.18390780     1.03816942    -0.18633409     0.27026109
O       5.67427102     6.69590898     1.67364402     0.95322477    -0.17905992    -0.30237727
O       5.75328698     2.75082199     1.71199800    -0.47778236     0.55572487     0.33102528
O       1.96573298     6.63145303     1.48513003    -0.88530339    -0.09443640     0.49462901
O       1.88979600     2.46493398     1.59606098     0.04650819     1.35729332     0.07023999
