# total energy = -19886.60478762 eV

CRYSTAL
PRIMVEC
        9.15590599     0.00000000     0.00000000
        0.00002883     3.69624768     0.00000000
        0.00000000     0.00000000    14.17105966
PRIMCOORD
24 1
Ti      3.31859276     2.19039290     5.25736208     0.20952159    -0.14945751     2.43047320
Ti      5.83734232     1.50585465     8.91369771    -0.20952159     0.14945751    -2.43047320
Ti      7.89638948     1.50585591     1.82811119     0.20937169     0.14893635    -2.42902927
Ti      1.25954559     2.19039184    12.34294873    -0.20937169    -0.14893635     2.42902927
Ti      3.31857847     0.34226913     1.82816801     0.20974862    -0.14885973    -2.42832479
Ti      5.83735660     3.35397855    12.34289192    -0.20974862     0.14885973     2.42832479
Ti      1.25953130     0.34226780     8.91364090    -0.20917449    -0.14936109    -2.43146694
Ti      7.89640377     3.35397987     5.25741890     0.20917449     0.14936109     2.43146694
O       2.89791233     1.30151162     7.23138326     1.15270028     0.76088175    -2.28600955
O       6.25802281     2.39473593     6.93967653    -1.15270028    -0.76088175     2.28600955
O       1.68011470     1.30152650     0.14589901    -1.15132577     0.76113295    -2.28714289
O       7.47582050     2.39472104    14.02516040     1.15132577    -0.76113295     2.28714289
O       6.25800853     0.54661209     0.14585304    -1.15169241    -0.76104810    -2.28675080
O       2.89792655     3.14963545    14.02520637     1.15169241     0.76104810     2.28675080
O       7.47580621     0.54659720     7.23142929     1.15158982    -0.76106893    -2.28555986
O       1.68012879     3.14965041     6.93963050    -1.15158982     0.76106893     2.28555986
O       0.33267280     2.24826735     3.82795673    -1.81647297     0.55038212     0.12231796
O       8.82326227     1.44798019    10.34310306     1.81647297    -0.55038212    -0.12231796
O       4.91063785     1.44794584     3.25761816    -1.81827969    -0.55045565    -0.12512252
O       4.24529729     2.24830178    10.91344137     1.81827969     0.55045565     0.12512252
O       0.33265852     0.40014352     3.25757290    -1.81683833     0.55051401    -0.12525211
O       8.82327656     3.29610403    10.91348663     1.81683833    -0.55051401     0.12525211
O       4.24528300     0.40017787    10.34314819     1.81825912     0.55047622    -0.12294300
O       4.91065213     3.29606967     3.82791154    -1.81825912    -0.55047622     0.12294300
