# total energy = -4988.95817864 eV

CRYSTAL
PRIMVEC
        3.39477516     0.00000000     0.00000000
        0.00000000     3.93151176     0.00000000
        0.00000000    -0.00006203     4.73177256
PRIMCOORD
6 1
Ti      1.69738763     1.96572471     2.36588628     0.00000000     0.00000000     0.00000000
Ti      0.00000000     0.00000000     0.00000000     0.00000000     0.00000000     0.00000000
O       1.69738763     0.76618159     0.92215276     0.00000000    -0.11964479    -0.13585354
O       1.69738763     3.16526778     3.80961975     0.00000000     0.11964479     0.13585354
O       0.00000000     1.19951805     3.28804009    -0.00000000     0.11955454    -0.13616002
O       0.00000000     2.73193136     1.44373247    -0.00000000    -0.11955454     0.13616002
