# total energy = -4987.63280719 eV

CRYSTAL
PRIMVEC
        3.41776840     0.00000000     0.00000000
        0.00000000     3.57008712     0.00000000
        0.00000000    -0.00006240     4.64855052
PRIMCOORD
6 1
Ti      1.70888405     1.78501231     2.32427521     0.00000000     0.00000000     0.00000000
Ti      0.00000000     0.00000000     0.00000000     0.00000000     0.00000000     0.00000000
O       1.70888405     0.69574523     0.90593401    -0.00000000    -0.92195268    -0.83370982
O       1.70888405     2.87427940     3.74261636    -0.00000000     0.92195268     0.83370982
O       0.00000000     1.08924212     3.23021024     0.00000000     0.92201156    -0.83279476
O       0.00000000     2.48078250     1.41834018     0.00000000    -0.92201156     0.83279476
