# total energy = -19072.44258276 eV

CRYSTAL
PRIMVEC
        5.17600016     0.00000000     0.00000000
        0.00000000     5.50899976     0.00000000
        0.00000000     0.00000000     9.26300011
PRIMCOORD
22 1
Ti      1.66314599     3.35854402     3.24685301    -0.45124857    -0.50166818     0.59680032
Ti      3.89944101     2.27275898     5.93327699    -0.63123460    -0.32841510    -1.09355229
Ti      4.35748398     2.13753800     1.25792798     0.60589020    -1.19702329     0.11618845
Ti      0.92317898     3.11810302     8.12844302     0.01752207     1.54623193     0.20249168
Ti      1.81864002     0.58377501     1.34838798    -1.63065774    -0.76308905    -1.30671739
Ti      3.25458302     5.28049600     7.93748698    -1.11971173    -0.97835628     0.94695719
Ti      1.19768698     0.07626301     5.98126500    -1.51715223     0.05823165    -0.33062856
Ti      4.04586398     4.95170701     3.55941499     2.68075014    -0.16681298     1.00079816
O       3.17633898     3.34034201     4.44973899     0.45283931     0.02042022     1.00713542
O       0.90887399     1.81639699     0.21988400    -0.73792128     1.55353438    -1.16293867
O       4.40231900     3.89400398     8.30426301     0.67256664    -1.41657758     0.20788919
O       3.34020702     0.79296100     0.21559501     1.17063322     1.65408127    -1.00389789
O       1.76040798     4.61296700     0.07645500    -0.45899016    -1.02810663    -1.49666002
O       3.82107700     0.67586402     4.81413902     0.63406384     0.94016022    -0.64506663
O       0.76970397     4.92483099     4.30750001     0.11128536    -1.06500686     0.82773175
O       4.98084499     3.38797400     2.40880399     1.21590882     0.94888731     0.71116380
O       0.48566502     1.85923903     6.67799898    -2.35175474     0.09951227    -0.73484598
O       2.73455101     1.94850202     2.37416903    -1.07008788     0.65878141    -0.45403230
O       2.08034098     4.07932402     6.78180800     0.17374673     0.19038975     0.67854523
O       5.07317102     0.65734800     2.04339102     0.47035444    -0.83494241     1.47749989
O       2.60680302     1.15415299     6.67397501     1.61798091     0.25846513     2.09713007
O       2.44879402     4.83614501     2.62094898     0.14521750     0.35130307    -1.64199142
