# total energy = -19878.12298757 eV

CRYSTAL
PRIMVEC
        7.45308361     0.00000000     0.00000000
        0.00002317     2.64411160     0.00000000
        0.00000000     0.00000000    11.85722740
PRIMCOORD
24 1
Ti      2.70139789     1.56689800     4.39894690    -0.78760889     0.64759196     0.10351934
Ti      4.75170858     1.07721335     7.45828086     0.78760889    -0.64759196    -0.10351934
Ti      6.42781256     1.07721420     1.52961961    -0.78637296    -0.64782979    -0.10242405
Ti      1.02529396     1.56689725    10.32760825     0.78637296     0.64782979     0.10242405
Ti      2.70138661     0.24484225     1.52966716    -0.78760889     0.64759196    -0.10351934
Ti      4.75171991     2.39926920    10.32756070     0.78760889    -0.64759196     0.10351934
Ti      1.02528263     0.24484134     7.45823331     0.78637296     0.64782979    -0.10242405
Ti      6.42782390     2.39927010     4.39899445    -0.78637296    -0.64782979     0.10242405
O       2.35895606     0.93103656     6.05065252     8.14876071    -0.88392683     3.12092856
O       5.09415046     1.71307484     5.80657523    -8.14876071     0.88392683    -3.12092856
O       1.36764541     0.93104730     0.12207682    -8.14875557    -0.88410526     3.12080052
O       6.08546117     1.71306410    11.73515057     8.14875557     0.88410526    -3.12080052
O       5.09413913     0.39101898     0.12203832    -8.14876071     0.88392683     3.12092856
O       2.35896739     2.25309236    11.73518908     8.14876071    -0.88392683    -3.12092856
O       6.08544984     0.39100830     6.05069098     8.14875557     0.88410526     3.12080052
O       1.36765659     2.25310310     5.80653677    -8.14875557    -0.88410526    -3.12080052
O       0.27080168     1.60829856     3.20293299     1.54076679    -0.36304993     5.52674873
O       7.18230485     1.03581279     8.65429471    -1.54076679     0.36304993    -5.52674873
O       3.99735334     1.03578828     2.72571856     1.54228015     0.36333995    -5.52656875
O       3.45575319     1.60832312     9.13150899    -1.54228015    -0.36333995     5.52656875
O       0.27079034     0.28624276     2.72568071     1.54076679    -0.36304993    -5.52674873
O       7.18231618     2.35786864     9.13154684    -1.54076679     0.36304993     5.52674873
O       3.45574191     0.28626727     8.65433251    -1.54228015    -0.36333995    -5.52656875
O       3.99736462     2.35784408     3.20289514     1.54228015     0.36333995     5.52656875
