# total energy = -19518.10328590 eV

CRYSTAL
PRIMVEC
        5.93400000     0.00000000     0.00000000
        0.00000000     9.29699974     0.00000000
        0.00000000     0.00000000     4.64899994
PRIMCOORD
23 1
Ti      4.47077601     7.12623301     2.18903901     1.01414168    -0.58873990     0.77664956
Ti      4.45237001     2.33010899     2.34263398     0.51879353    -0.84647432     0.26607020
Ti      1.40765202     7.04738999     2.20470901    -1.30908486    -0.10964448     0.86763708
Ti      1.44138501     2.35984102     2.38825001    -0.27496056    -1.23515919    -0.06985690
Ti      2.94625202     4.48778800     0.25160299     0.73712167     0.19139119    -0.02166695
Ti      2.98283902     9.29020998     4.60189301    -0.13617544     0.65112646    -0.38382136
Ti      5.92562699     4.58754500     4.63331799    -0.41150778     0.29811232    -0.20830751
Ti      0.01291499     0.05901602     0.00933400     0.29431789     0.67684264    -0.48719929
O       4.46556197     5.48220498     0.98033599    -0.56193434     0.31537266    -0.62451322
O       4.43676198     0.85448399     0.93808601     0.09567798    -0.05748552    -0.04291867
O       1.49256698     5.48527802     0.94698698     0.46062616     0.65348879    -0.14087645
O       1.54192800     0.95349401     0.96612002    -0.07819448    -0.99115986    -0.73009535
O       4.52125502     8.48367601     3.54106101    -0.53867794    -0.37730156     1.13087186
O       4.50398601     3.68265000     3.81357501    -0.68516994     0.71096248    -0.45849934
O       1.46322002     8.36490498     3.71059601     0.27567944     0.01044640    -0.16994561
O       1.52951403     3.66835502     3.81527097     0.14926622     0.77884863    -0.34222501
O       3.10417100     1.44805698     3.30113802    -1.12313207    -0.45887138     0.11993069
O       5.91556902     6.11790100     3.04959399     0.17969781    -1.05776689     1.57630974
O       5.90856801     1.49018700     3.22165798     0.53633206    -0.90342968     0.90010807
O       2.94307902     7.78730801     1.37192499    -0.07110851     0.12173355    -0.46481937
O       2.95717202     3.16737000     1.49184999     0.04325857     0.72999354    -0.46096786
O       5.89771300     7.88913500     1.36067801     0.77831615     0.69333988    -1.17997944
O       0.03280999     3.13669598     1.35281899     0.10671676     0.79437450     0.14811514
