# total energy = -19072.29352050 eV

CRYSTAL
PRIMVEC
        5.17600016     0.00000000     0.00000000
        0.00000000     5.50899976     0.00000000
        0.00000000     0.00000000     9.26300011
PRIMCOORD
22 1
Ti      1.91983400     3.72179901     3.44628102     2.23309571    -0.81029966    -1.19943010
Ti      3.79329699     2.19378700     5.99845702     0.51079920     1.07536995    -0.13526347
Ti      4.30580299     2.42281301     1.72667002    -0.63372369     0.13865553    -1.36404195
Ti      1.36735999     2.45999300     7.95134401    -0.55095367     0.57160272    -2.09017780
Ti      1.52637003     0.67174300     1.22254698     0.29246952     1.25890745     0.06204666
Ti      3.07955600     5.48625599     7.84798300     0.29772331    -2.09511355    -1.79555730
Ti      0.59141299     5.28571099     6.40487197    -0.41003300    -0.03426819    -0.98805114
Ti      4.46658001     5.06408901     3.48914200    -1.35308853    -1.37326167     1.61961382
O       3.70872399     3.21237198     4.45639202    -1.00568763     0.79126655    -0.75207624
O       0.38560601     2.18124899     0.22906400    -1.13016892     0.38717845     1.21095610
O       0.36574699     3.40996099     6.59854497    -1.63728656    -1.16376374    -0.37996342
O       2.58562302     1.28259802     8.97071101     1.34468925     1.50478702     2.58682565
O       1.34972002     5.00567398     8.12492802    -1.81025424    -1.35183152     2.00411009
O       4.18921101     0.53214202     5.14474801     0.59587472    -1.01917102    -0.86239846
O       1.10050998     4.84371399     4.55219702    -0.30457197     0.63096386     0.55956456
O       0.23110599     3.66044202     2.43755202     0.24815654     1.25391591     0.12205777
O       4.60526800     1.00319502     7.45909402     1.38845304     0.45897448    -0.47135820
O       2.47590901     2.21029400     2.09573702    -0.11615426    -0.14978044     0.35038081
O       2.87216699     3.33968700     7.17935198     1.20115274     1.70380102     1.20601392
O       5.09629998     0.99764898     2.47998998     0.89168025    -0.68382499    -0.42242726
O       2.11633900     1.18560099     6.47004698    -0.90264472    -0.77589057     0.29200364
O       2.65940498     5.06159701     2.21923598     0.85047290    -0.31821784     0.44717234
