# total energy = -19069.56511082 eV

CRYSTAL
PRIMVEC
        5.93400000     0.00000000     0.00000000
        0.00000000     9.29699974     0.00000000
        0.00000000     0.00000000     4.64899994
PRIMCOORD
22 1
Ti      4.40234598     7.13819200     2.25766002    -0.75476741     2.13786896    -1.78604756
Ti      4.46844398     2.15464000     2.12082700     0.60100896    -1.92823733    -0.54596316
Ti      1.62259699     7.11870002     2.81817599    -0.11310955    -1.67934982    -2.76029521
Ti      1.52694598     2.44668800     2.24609601    -1.74775045    -1.67554459     0.07911364
Ti      3.08998497     4.64112002     4.60329702     0.74934341     1.28479024    -0.53599010
Ti      2.87496798     0.19778100     4.61311802    -1.11597154    -0.12075525     2.62959211
Ti      0.04256199     4.61891098     4.43657301    -1.08763798     0.57869692     2.39600884
Ti      5.82248902     8.75627997     0.10114398     0.82797266     0.61099461     2.35359719
O       4.07352900     5.99458699     0.69307599     0.07969806    -2.55142874     0.65605630
O       4.76461501     0.19795902     1.76733200     0.27647083     2.97413985    -1.75376503
O       1.21792599     0.83118903     0.80144498     0.50948639     0.39816607     0.35865617
O       4.16890600     8.34992900     3.96391401     1.02862394    -0.64867774    -1.04626531
O       4.53990101     4.04760302     3.60983802    -1.44238375    -2.51673992    -1.62886516
O       1.42245300     8.65786401     3.55714397     0.03201153     2.04488498     1.25362280
O       1.40791402     4.21943698     3.43950702     2.18267765    -2.20268572    -1.02260678
O       3.20092000     5.99403802     2.98692898    -2.01849876    -0.09769553     1.35707889
O       3.02192802     1.37674701     3.20994099    -0.76891388     2.20478631    -0.28527120
O       0.19698200     6.41126502     4.03644801     0.80361556     0.93887183    -2.22068911
O       2.85236502     8.03482300     1.41011899    -0.55811883    -1.27486398     1.74089151
O       2.75516701     3.08149501     1.19863801     2.48829271     1.97518389    -1.74001579
O       0.25125500     7.53690499     1.47338001     0.21280643    -1.18208414     1.28349286
O       5.82631698     3.01756299     1.02663498    -0.18485596     0.72967960     1.21766385
