# total energy = -19073.99208809 eV

CRYSTAL
PRIMVEC
        5.17600016     0.00000000     0.00000000
        0.00000000     5.50899976     0.00000000
        0.00000000     0.00000000     9.26300011
PRIMCOORD
22 1
Ti      1.82179899     3.32959702     3.25364600     0.18677220     1.94978241     1.24400790
Ti      3.57351100     2.23337602     5.83061999     0.09637809     1.00421696     0.00110223
Ti      4.33967499     2.27498200     1.23714899     1.06505803    -0.05459405    -2.11027921
Ti      0.69580702     3.25142499     8.17741499     0.95037187     0.41494869     0.25484681
Ti      1.85348999     0.58899201     1.38470700    -0.60539655    -1.05549917    -2.16615085
Ti      3.11831601     5.01645698     8.01759298     0.27651145    -0.34256774     1.06050229
Ti      0.72227302     0.20978401     5.98661800    -0.33722036     0.58457832    -1.46296955
Ti      4.48651200     4.91749501     3.35828599    -0.49438475     0.62296927     1.04801958
O       3.49302002     3.61292301     4.41198098     0.12335386    -1.38935550     1.85484619
O       0.88748602     2.08225300     0.31085401    -0.06463704    -1.08455291     0.03339041
O       4.27278498     3.67896597     9.00932502    -0.53268675     0.41507802     0.87766619
O       3.27409198     0.89212299     0.08573301     1.03179899     1.02688304     0.29424821
O       1.64502702     4.65882100     9.18547802    -0.51026389     0.94086573    -0.24768474
O       4.72992300     0.94488498     4.74839197    -2.01714739     0.45801417    -0.13874629
O       1.15023999     4.79383698     4.24951002    -1.10606482    -0.19710444     2.22044639
O       0.13113002     3.55629602     2.39899098    -0.20227313    -1.33520676    -0.51522741
O       5.05291702     2.05724202     6.93228802     0.53961819    -1.02932071    -0.54108243
O       2.71263201     2.11321098     2.24556901     0.63879365    -1.91039232     0.01619950
O       2.57320402     3.36079699     7.30061999    -1.12052085    -0.53014804    -2.12467842
O       5.15806999     0.68954098     2.10022598     0.49882762     0.42944252    -0.10837641
O       2.40418401     0.75175301     6.40165198     0.99177256    -0.32663152     0.85735806
O       2.74585201     4.65898298     2.29093003     0.59133955     1.40859379    -0.34743870
