# total energy = -39020.28559157 eV

CRYSTAL
PRIMVEC
        7.60600008     0.00000000     0.00000000
        0.00000000     7.60600008     0.00000000
       -3.79573973    -3.79573973     9.71340985
PRIMCOORD
46 1
Ti      1.59984443     3.80492043     6.69718160     0.45086548     7.20009297    -4.57063379
Ti      3.93596800     0.06335897     1.48304300    -0.70259971     0.22507497     0.77314206
Ti      2.04724745     0.82843545     6.01908461    -0.92526812    -2.09301270    -1.61677352
Ti      4.24514499     3.27580001     1.45526199     0.09986837    -0.03329837    -0.44791642
Ti     -1.87011055     3.99958246     6.31701564    -3.04071448    -0.04667917    -0.61349887
Ti      0.05780198    -0.36559999     1.60177699     0.33098440     5.05515759    -6.53182238
Ti     -2.09226355     0.60671346     6.35294360     1.09013657     2.39319914    -1.70656341
Ti      0.23074901     3.80964698     1.11779502    -1.31389951    -2.00658427    -1.89468982
Ti      3.55320044     2.40050845     8.30385263     3.97509048     0.30444598    -0.37822073
Ti      5.75756299     1.65317502     3.27261701    -1.05678961     0.22453118     1.85480222
Ti      3.74861046    -2.10531057     8.42499364     1.32052602    -1.21715863     2.06560345
Ti      5.81920902     5.90208299     3.57972201    -5.77907509    -0.89651572    -1.26182282
Ti      0.07378445     1.81796643     8.30242761    -3.22413499     0.66228634    -0.10625859
Ti      1.68327399     1.35708199     3.27684302     1.89389715     0.03567921    -0.14454285
Ti     -0.05115758    -1.51463954     8.05471662     0.07695263    -0.82091986     2.53579591
Ti      1.65519902     5.69789000     3.34585599     1.82741225    -0.36615402     3.03451838
O       1.23345645     4.64962247     5.07959264     1.39952987     1.52347843    -1.03385408
O       3.84251799     1.71633598     0.35528701    -1.11915277     0.90207702     0.27148803
O      -1.54741355     2.38226745     5.37170663    -0.73416104    -0.75409147    -0.96131732
O       0.48048501     5.84586998     0.24287299    -0.79214586    -2.10632074     3.09142720
O      -1.70847553    -2.03350953     5.22393060     0.20840856    -2.55688951     4.65093708
O       0.37024500     1.64553000     0.91381899     0.93885538     0.93183498     0.14514860
O       3.20910145     3.93451646     9.18741163    -0.05468764    -1.68169210     1.49176284
O       5.27830801     3.99573899     2.94287100     0.17355364    -0.34638737     1.54424267
O      -3.37565655    -0.44662152     9.04994165     0.09358716     1.92203017    -1.67934673
O       5.43378700     0.13433800     4.51991499     0.99301106     1.50719075     0.47419645
O       0.20853346     3.08609145     9.56188365    -0.11641265    -1.50226862    -0.12599541
O       1.89677045     2.19454346     4.92197862    -1.26358223     1.07542626    -0.08211438
O       0.14259046     0.30029147     9.16585962    -0.62062211    -1.30516264     2.84441994
O       2.05282598    -0.27951201     4.41737398    -0.42044546     1.08838771     2.64484724
O       1.80939243     2.25305543     7.47707965    -0.64196793    -4.37011955     2.46126886
O       3.75066902     1.56420101     2.89581402     0.62732704     1.45747022    -0.64778660
O       1.59107544    -2.47225557     8.18129164    -0.38290888     1.88539013    -2.62062667
O       4.16101502     6.34864001     3.02918097    -2.67550560    -0.75373537    -1.68695360
O      -2.07050055     2.05459243     7.94966864     1.28301643    -0.86359351    -1.82851320
O      -0.07272800     0.96932403     3.11838999    -0.04181464     1.49175769     1.61259702
O      -1.90323953    -2.46945654     8.10294261    -0.47368814     1.37875484    -1.09689369
O      -0.15413002     6.15538702     2.96547798     2.50021852    -2.64988840     1.23288736
O       3.63236245     4.10346445     6.80474662     0.46574883    -0.28940014     0.11430589
O       5.72794097     0.10727598     1.85473398     1.22830385     0.46369811     0.01860631
O       3.77814744     1.30403446     6.19171562     0.25814142    -1.56030359     2.17086779
O       5.89103197     3.22875001     0.87432703     2.20417465     0.18204240    -0.32605303
O      -0.27167457     3.85703343     6.87990963     2.97044209    -0.53412708     1.81761351
O       1.99304599    -0.14522201     2.15818501    -0.66162994    -1.92754441    -2.27241406
O       0.29288146     0.06220944     6.93907863    -0.39514708     0.03355342    -1.75911807
O       1.68351201     4.11401598     2.42407600     0.02630188    -1.26171149    -1.45674851
