# total energy = -19961.01562770 eV

CRYSTAL
PRIMVEC
        7.60600008     0.00000000     0.00000000
        0.00000000     7.60600008     0.00000000
       -1.89786986    -1.89786986     4.85670466
PRIMCOORD
24 1
Ti      3.80617299     6.76273201     1.11491699     1.29275655     0.13337731    -0.37695960
Ti      3.78271800     2.88974399     1.22274500     0.97821898    -0.27464200    -0.65956662
Ti     -0.05979602     6.64899102     1.20446500    -0.68275901    -1.34097195     0.97289526
Ti     -0.04278001     2.73526201     1.28243000    -0.56056523     0.79445060    -0.06017849
Ti      5.60421722     2.81719722     3.71685083     0.65783010    -0.66958956     0.06925012
Ti      5.65446022    -0.96385979     3.65488582     0.71276405     0.42434197    -0.19498097
Ti      1.91984623     2.85046522     3.60707984    -0.08475645    -0.03729001     0.60925089
Ti      1.94110523    -0.90751977     3.44691080    -0.33419211     0.13503439     1.63098221
O       3.99389603     4.77992199     0.87263699    -0.66253214     0.75452804    -0.78726411
O       3.97123501     1.08615499     0.72890398    -0.88184680    -1.37888931    -0.61749873
O      -0.19046698     4.72364299     0.87303298     0.41328108    -0.38486883    -0.06732745
O      -0.09651500     0.81442898     0.87748801     0.36774039     2.39878820    -0.43404660
O       5.57881020     4.69522024     4.13922482     0.20980518     0.25111100    -0.87166574
O       5.84080522     0.89261920     4.18024881    -0.15713123    -0.32019965     0.13815391
O       2.18369025     4.85212421     3.96367683    -0.89029956    -0.85512197     0.53621071
O       1.90680624     1.03702522     4.03033983    -0.30604444    -0.93396103     0.15485349
O       3.85180823     2.52129025     3.31137480    -0.54445007     1.05295687    -0.74366564
O       3.85487523    -0.94246278     3.13559079    -1.39025513     0.34361084     0.35868625
O       0.05304023     2.80760425     3.22755682    -0.22969576     0.43962692     0.46525723
O       0.01444220    -1.01255379     3.28836882     0.26636253    -0.28640609    -0.68539259
O       5.62386499    -0.65011600     1.75437398     1.52678102    -1.03991108    -0.62196963
O       5.68928098     2.77894999     1.70772399     0.54996431     0.25163216     0.19900963
O       1.91575399     6.68859702     1.47614999    -0.06734853     0.09648197     0.65113880
O       1.94139401     2.77491300     1.63015200    -0.18362774     0.44591173     0.33482718
