# total energy = -19914.26471338 eV

CRYSTAL
PRIMVEC
        6.22384229     0.00000000     0.00000000
        0.00002190     3.56679638     0.00000000
        0.00000000     0.00000000     9.41615318
PRIMCOORD
24 1
Ti      2.25585654     2.11368034     3.49332580    -0.99539602     2.60778529    -3.62144051
Ti      3.96800780     1.45311633     5.92282778     0.99539602    -2.60778529     3.62144051
Ti      5.36767102     1.45311759     1.21471340    -0.99245699    -2.60822494     3.62543189
Ti      0.85619331     2.11367918     8.20144028     0.99245699     2.60822494    -3.62543189
Ti      2.25584569     0.33028220     1.21475113    -0.99510214     2.60812493     3.62231803
Ti      3.96801865     3.23651457     8.20140254     0.99510214    -2.60812493    -3.62231803
Ti      0.85618246     0.33028079     5.92279004     0.99262977     2.60784674     3.62442891
Ti      5.36768187     3.23651593     3.49336354    -0.99262977    -2.60784674    -3.62442891
O       1.96989315     1.25592970     4.80499105     4.40393342    -2.91915988     5.09600266
O       4.25397118     2.31086693     4.61116253    -4.40393342     2.91915988    -5.09600266
O       1.14207991     1.25594407     0.09694456    -4.40346523    -2.92047680     5.09702853
O       5.08178448     2.31085260     9.31920872     4.40346523     2.92047680    -5.09702853
O       4.25396033     0.52746874     0.09691402    -4.40373622     2.91935991     5.09615256
O       1.96990401     3.03932793     9.31923927     4.40373622    -2.91935991    -5.09615256
O       5.08177363     0.52745437     4.80502159     4.40314050     2.92043617     5.09701928
O       1.14209061     3.03934231     4.61113193    -4.40314050    -2.92043617    -5.09701928
O       0.22613990     2.16952777     2.54353797     3.56920159    -0.83950972     1.99217014
O       5.99772444     1.39726890     6.87261560    -3.56920159     0.83950972    -1.99217014
O       3.33806872     1.39723555     2.16456872     3.57049100     0.83945444    -1.99282295
O       2.88579562     2.16956113     7.25158466    -3.57049100    -0.83945444     1.99282295
O       0.22612904     0.38612954     2.16453867     3.56924478    -0.83926572    -1.99223571
O       5.99773529     3.18066714     7.25161471    -3.56924478     0.83926572     1.99223571
O       2.88578476     0.38616289     6.87264561    -3.57054036    -0.83962285    -1.99295922
O       3.33807957     3.18063378     2.54350792     3.57054036     0.83962285     1.99295922
