# total energy = -19517.72020822 eV

CRYSTAL
PRIMVEC
        5.17600016     0.00000000     0.00000000
        0.00000000     5.50899976     0.00000000
        0.00000000     0.00000000     9.26300011
PRIMCOORD
23 1
Ti      1.79852700     3.19857500     3.38726702     0.75619103    -0.32988269     3.03222727
Ti      3.33625602     2.23799701     5.84397002     0.80861456     0.70992093    -2.88564194
Ti      4.34337198     2.07886499     1.52826501     0.60848547    -0.18382803    -1.64025130
Ti      0.86417301     3.40186199     7.75703902    -0.65907940    -0.24426055     1.58918788
Ti      2.04721300     0.25358999     1.30753502    -1.33509723    -0.05240990     0.36295994
Ti      3.25456000     5.18207099     7.85863401     0.84808255    -0.41018495     2.21667124
Ti      0.76033002     0.55138899     5.92295999    -0.56927485     0.22544778    -3.32151659
Ti      4.52380301     4.94871297     3.36322602    -0.25375666    -0.13664339     3.11052613
O       1.71407100     1.85363298     4.85066701    -0.38730187     0.15721556    -0.59422073
O       3.47917500     3.51268901     4.39190902     0.68457832    -0.38557769     1.31431423
O       5.13708600     2.76597202     9.23895302    -0.10088267     0.00147221     0.39150794
O       3.41961398     0.71985902     0.23644301     2.05402397     0.98616627    -0.67171766
O       1.79133802     4.68612300     9.06975997    -0.56746967    -1.21513877    -0.48210439
O       4.24764398     0.74368798     4.85389298     0.20012395    -0.44033475    -0.54473880
O       1.01083798     4.65757500     4.45504500    -0.82703806     0.61953119     0.85842713
O       0.12476502     3.33188301     2.59772699    -0.65227832     0.04884995    -1.13588474
O       5.03112598     2.07006801     6.75965600     0.23366271     0.60829675     0.24604875
O       2.56345298     1.95226701     2.17721301     0.16382973     0.15781900    -0.41821811
O       2.62281597     3.64133200     6.97122398     0.03425713    -0.75978312     0.13730544
O       0.21524898     0.68180901     2.17055199     0.50479490    -0.36538501    -0.72095688
O       5.14144399     4.93187900     7.24297200    -1.32080832    -0.56295687     0.46766353
O       2.41835199     0.92966002     6.99616400    -1.10751312     0.88106416    -0.36023611
O       2.76548100     4.56359100     2.44453399     0.88385612     0.69060268    -0.95135223
