# total energy = -4980.59679895 eV

CRYSTAL
PRIMVEC
        4.63984082     0.00000000     0.00000000
       -0.00001033     4.63984082     0.00000000
       -2.31995680    -2.31996196     5.92146880
PRIMCOORD
6 1
Ti     -0.00020433     3.48005635     1.48036704    -0.00225640     0.00225640     0.00000000
Ti      2.32007789    -1.16017762     4.44110137     0.00225640    -0.00225640     0.00000000
O       0.00004635     1.15995232     0.96455882    -0.00037641    -0.00247957    -1.33217183
O       2.31982709     1.15992628     4.95690966     0.00037641     0.00247957     1.33217183
O      -0.00002621    -1.15993218     3.92529315    -0.00247957    -0.00037641    -1.33217183
O       2.31989957     3.47981071     1.99617533     0.00247957     0.00037641     1.33217183
