# total energy = -19960.90972516 eV

CRYSTAL
PRIMVEC
        7.60600008     0.00000000     0.00000000
        0.00000000     7.60600008     0.00000000
       -1.89786986    -1.89786986     4.85670466
PRIMCOORD
24 1
Ti      3.87638899     6.72155000     1.10045600    -1.69101235     1.34915757     0.96368582
Ti      3.79063597     2.95788598     1.24540998     1.13136757    -1.30511225    -1.33031087
Ti     -0.11346201     6.60480699     1.23148002     1.92609200     0.02484278    -0.09495113
Ti      0.02704397     2.74681702     1.24339498    -1.01327985     0.43473360     0.97016371
Ti      5.63716924     2.76261524     3.71782780     1.40676728    -0.43614153    -1.00220019
Ti      5.68786125    -0.99557778     3.66921779    -0.42104555     0.66627284     0.10490928
Ti      1.94496225     2.92039822     3.61484684    -1.48794732    -0.73699388     0.22383055
Ti      1.89777525    -0.84231275     3.55650383     0.55744160     0.11573260     0.02067039
O       3.93000999     4.87775703     0.73812199    -0.13629371    -1.91180257     0.74488974
O       3.89419400     1.06253098     0.63106001    -0.30598350    -1.13295883     1.00658957
O      -0.08544498     4.62153602     0.84753102    -0.27409538     1.99032769    -0.21687160
O      -0.11180198     0.97414102     0.94290898     0.29800048    -2.35783771    -1.50040149
O       5.63958224     4.71129421     4.08177882    -0.40160286     0.00745569     0.40560993
O       5.78960325     0.85672024     4.10062182    -0.41597559     0.06997491    -0.02322196
O       2.07360725     4.77572022     4.05148781    -0.18324979     0.20404128    -1.48785990
O       1.94189821     0.95336722     4.12839484    -0.39114181     1.46419160    -0.73507275
O       3.73694824     2.58692024     3.13010079     1.06620088     0.68653596     1.07247000
O       3.76999822    -0.87491177     3.06739784     0.70025409    -0.27087147     0.89054253
O      -0.05252677     2.70403420     3.27057079     0.91185339     0.73620995     0.49613491
O      -0.01594480    -1.00572576     3.29309283    -0.24425772    -0.34912483    -0.88341698
O       5.69493402     6.86572498     1.67115498     0.48172438    -0.78070008     0.12437973
O       5.73521298     2.73305799     1.73179399    -1.62378543     0.86489680    -0.08702159
O       1.88947801     6.72019399     1.46382498    -0.65979700    -0.08994236     0.62604303
O       1.87683798     2.76183602     1.66148501     0.76976646     0.75711226    -0.28859101
