# total energy = -4985.86825713 eV

CRYSTAL
PRIMVEC
        3.35249832     0.00000000     0.00000000
        0.00000000     5.25286226     0.00000000
        0.00000000    -0.00006817     5.25286226
PRIMCOORD
6 1
Ti      1.67624910     2.62639699     2.62643107     0.00000000     0.00000000     0.00000000
Ti      0.00000000     0.00000000     0.00000000     0.00000000     0.00000000     0.00000000
O       1.67624910     1.02369219     1.02370547     0.00000000    -0.82048817    -0.82048817
O       1.67624910     4.22910179     4.22915667     0.00000000     0.82048817     0.82048817
O       0.00000000     1.60267716     3.65013761     0.00000000     0.82042467    -0.82042467
O       0.00000000     3.65011681     1.60272453     0.00000000    -0.82042467     0.82042467
