# total energy = -19961.64478320 eV

CRYSTAL
PRIMVEC
        7.60600008     0.00000000     0.00000000
        0.00000000     7.60600008     0.00000000
       -1.89786986    -1.89786986     4.85670466
PRIMCOORD
24 1
Ti      3.76980301     6.68375902     1.13778300     0.76361844    -0.65399581     0.78138219
Ti      3.84518399     2.85524300     1.18570497     0.00452334     0.82287570     0.22572417
Ti     -0.00167400     6.62149100     1.21040803    -0.70447867     0.50636404    -0.26206750
Ti      0.02154201     2.83417402     1.21299898    -0.44849440    -0.18202569     1.62292103
Ti      5.72692622     2.72363620     3.67301781    -0.04414097     2.39263581    -0.10780922
Ti      5.70586920    -0.96460779     3.66924081    -0.47202078    -1.71382730    -0.31618718
Ti      1.92267224     2.86546925     3.58221480    -0.07964124     0.52439982     0.46574703
Ti      1.85002621    -0.90588276     3.61710981     0.32657110    -0.36309569    -0.46209503
O       3.78774000     4.79689599     0.78836202     0.13509867    -0.10585390    -0.24387257
O       3.75683901     1.01104500     0.74994799     0.27221256    -0.19261632    -0.04352365
O      -0.07842603     4.84077600     0.86107002     0.17421262    -2.79455312    -0.55700862
O      -0.14708900     0.90279502     0.85937301     0.48327553     1.08355815    -0.33398411
O       5.72062023     4.67361023     4.08257682    -0.09196582     1.00470624     0.01777481
O       5.85519921     0.90840223     4.22144282     0.01510009     0.26124449    -1.59818366
O       1.96195323     4.78349823     3.97510182    -0.07983407     0.05116857     0.69093229
O       1.70069620     1.02648422     4.01360481     0.68353291    -0.76196213     0.39020207
O       3.82632723     2.81986020     3.29302081    -0.03067919    -0.47779059    -0.71878609
O       3.85431325    -0.94347880     3.17321879    -1.11028915     0.41301934     0.38208767
O      -0.05097977     2.90838325     3.19611179     0.97686504    -0.23681694     0.28473075
O       0.00262721    -1.12027279     3.26571283     0.06496794     0.54359594     0.04320766
O       5.68939999     6.71542001     1.70365901    -0.14128834     0.04516247    -0.32924377
O       5.73190398     2.89279199     1.64722300    -1.01614303    -0.30744543    -0.24332261
O       1.87139502     6.69650600     1.62472302     0.80026361     0.26538525     0.14133848
O       1.94889499     2.89885901     1.62741901    -0.48126595    -0.12413291     0.17003560
