# total energy = -19913.52756700 eV

CRYSTAL
PRIMVEC
        7.97324661     0.00000000     0.00000000
        0.00002806     4.56935536     0.00000000
        0.00000000     0.00000000    12.06285570
PRIMCOORD
24 1
Ti      2.88993513     2.70779590     4.47523359     0.41111981    -0.33889878     2.43942862
Ti      5.08333972     1.86155984     7.58762261    -0.41111981     0.33889878    -2.43942862
Ti      6.87642180     1.86156145     1.55614635     0.41021992     0.33893889    -2.44019146
Ti      1.09685306     2.70779441    10.50670998    -0.41021992    -0.33893889     2.44019146
Ti      2.88992123     0.42311828     1.55619470     0.41111981    -0.33889878    -2.43942862
Ti      5.08335362     4.14623758    10.50666163    -0.41111981     0.33889878     2.43942862
Ti      1.09683915     0.42311648     7.58757426    -0.41021992    -0.33893889    -2.44019146
Ti      6.87643570     4.14623932     4.47528194     0.41021992     0.33893889     2.44019146
O       2.52359285     1.60894777     6.15558313     1.03561888     1.24838392    -1.91647324
O       5.44968200     2.96040790     5.90727307    -1.03561888    -1.24838392     1.91647324
O       1.46309696     1.60896619     0.12419384    -1.03519079     1.24851273    -1.91697229
O       6.51017795     2.96038955    11.93866198     1.03519079    -1.24851273     1.91697229
O       5.44966810     0.67573022     0.12415471    -1.03561888    -1.24838392    -1.91647324
O       2.52360675     3.89362552    11.93870111     1.03561888     1.24838392     1.91647324
O       6.51016405     0.67571181     6.15562226     1.03519079    -1.24851273    -1.91697229
O       1.46311068     3.89364393     5.90723388    -1.03519079     1.24851273     1.91697229
O       0.28970354     2.77934099     3.25847838    -2.21630872     0.74170389     0.33873525
O       7.68357131     1.79001475     8.80437782     2.21630872    -0.74170389    -0.33873525
O       4.27633669     1.78997202     2.77298804    -2.21679080    -0.74161287    -0.33940785
O       3.69693817     2.77938371     9.28986791     2.21679080     0.74161287     0.33940785
O       0.28968964     0.49466324     2.77294954    -2.21630872     0.74170389    -0.33873525
O       7.68358521     4.07469249     9.28990642     2.21630872    -0.74170389     0.33873525
O       3.69692426     0.49470597     8.80441626     2.21679080     0.74161287    -0.33940785
O       4.27635059     4.07464977     3.25843987    -2.21679080    -0.74161287     0.33940785
