# total energy = -19962.22124506 eV

CRYSTAL
PRIMVEC
        5.17575250     0.00000000     0.00000000
        0.00002837     5.50856584     0.00000000
        0.00000000     0.00000000     9.26345890
PRIMCOORD
24 1
Ti      1.87597816     3.26437102     3.43667725     0.00165528    -0.00302490    -0.00003111
Ti      3.29980272     2.24419487     5.82678192    -0.00165528     0.00302490     0.00003111
Ti      4.46376380     2.24419676     1.19501532     0.00119762     0.00331132     0.00004191
Ti      0.71201707     3.26436934     8.06844395    -0.00119762    -0.00331132    -0.00004191
Ti      1.87596408     0.51008821     1.19505247     0.00165528    -0.00302490     0.00003111
Ti      3.29981680     4.99847784     8.06840681    -0.00165528     0.00302490    -0.00003111
Ti      0.71200300     0.51008615     5.82674477    -0.00119762    -0.00331132     0.00004191
Ti      4.46377788     4.99847989     3.43671440     0.00119762     0.00331132    -0.00004191
O       1.63816833     1.93965973     4.72707227     0.00930997     0.00088060    -0.00040701
O       3.53761254     3.56890622     4.53638690    -0.00930997    -0.00088060     0.00040701
O       0.94975816     1.93968191     0.09537250    -0.00927243     0.00084281    -0.00039415
O       4.22602277     3.56888403     9.16808640     0.00927243    -0.00084281     0.00039415
O       3.53759846     0.81462324     0.09534245    -0.00930997    -0.00088060    -0.00040701
O       1.63818241     4.69394264     9.16811646     0.00930997     0.00088060     0.00040701
O       4.22600869     0.81460106     4.72710233     0.00927243    -0.00084281    -0.00039415
O       0.94977213     4.69396488     4.53635684    -0.00927243     0.00084281     0.00039415
O       0.18806429     3.35062202     2.50229141    -0.00144367     0.00508899     0.00357512
O       4.98771658     2.15794387     6.76116776     0.00144367    -0.00508899    -0.00357512
O       2.77594470     2.15789253     2.12946762    -0.00175709    -0.00508744    -0.00343602
O       2.39983618     3.35067336     7.13399139     0.00175709     0.00508744     0.00343602
O       0.18805022     0.59633905     2.12943804    -0.00144367     0.00508899    -0.00357512
O       4.98773066     4.91222684     7.13402097     0.00144367    -0.00508899     0.00357512
O       2.39982210     0.59639039     6.76119729     0.00175709     0.00508744    -0.00343602
O       2.77595877     4.91217550     2.50226183    -0.00175709    -0.00508744     0.00343602
