# total energy = -4982.22016499 eV

CRYSTAL
PRIMVEC
        4.36121452     0.00000000     0.00000000
        0.00000000     2.92858681     0.00000000
        0.00000000    -0.00009386     5.81068855
PRIMCOORD
6 1
Ti      2.18060726     1.46424642     2.90534417     0.00000000     0.00000000     0.00000000
Ti      0.00000000     0.00000000     0.00000000     0.00000000     0.00000000     0.00000000
O       2.18060726     0.57072014     1.13241760    -0.00000000    -0.19558903     2.28124221
O       2.18060726     2.35777276     4.67827073    -0.00000000     0.19558903    -2.28124221
O       0.00000000     0.89348906     4.03776287    -0.00000000     0.19558158     2.28314842
O       0.00000000     2.03500378     1.77292540    -0.00000000    -0.19558158    -2.28314842
