# total energy = -4975.23286610 eV

CRYSTAL
PRIMVEC
        2.75208959     0.00000000     0.00000000
        1.84694863     3.89654841     0.00000000
       -0.00001207    -0.00005794     4.43127154
PRIMCOORD
6 1
Ti      2.29951298     1.94824525     2.21563568     0.00000000     0.00000000     0.00000000
Ti      0.00000000     0.00000000     0.00000000     0.00000000     0.00000000     0.00000000
O       1.73598546     0.75936865     0.86358953   -11.86228377     4.78312243     6.86380206
O       2.86304046     3.13712186     3.56768182    11.86228377    -4.78312243    -6.86380206
O       0.56352247     1.18885322     3.07922612    11.86179063    -4.78347621     6.86349687
O       1.28341398     2.70763717     1.35204523   -11.86179063     4.78347621    -6.86349687
