# total energy = -4987.67807865 eV

CRYSTAL
PRIMVEC
        3.21414365     0.00000000     0.00000000
        1.23965094     4.88112483     0.00000000
       -0.00000797    -0.00006600     5.07651231
PRIMCOORD
6 1
Ti      2.22689318     2.44052932     2.53825621     0.00000000     0.00000000     0.00000000
Ti      0.00000000     0.00000000     0.00000000     0.00000000     0.00000000     0.00000000
O       1.84865988     0.95124642     0.98933751     0.38917235    -0.19701008    -0.44097804
O       2.60512642     3.92981223     4.08717492    -0.38917235     0.19701008     0.44097804
O       0.37822991     1.48925619     3.52759474    -0.38946082     0.19679359    -0.44083123
O       0.86141293     3.39180255     1.54891769     0.38946082    -0.19679359     0.44083123
