# total energy = -19517.15318422 eV

CRYSTAL
PRIMVEC
        5.93400000     0.00000000     0.00000000
        0.00000000     9.29699974     0.00000000
        0.00000000     0.00000000     4.64899994
PRIMCOORD
23 1
Ti      4.58600700     6.91767701     2.35335400    -0.90291803     1.33256213    -0.91810323
Ti      4.44204798     2.34960901     2.35500302     0.02816259    -0.38399106     0.37752704
Ti      1.54208701     7.13471699     2.30505599    -0.32238303     0.45864538    -0.56455250
Ti      1.45257800     2.30082601     2.27759598    -0.55365359    -0.13854703     0.93831391
Ti      2.94386601     4.42872399     0.02977601    -1.06283762     0.32336057    -0.04161923
Ti      3.03907902     0.04803898     0.00471698    -1.06692979    -0.20917243    -0.33293150
Ti      5.90581401     4.67311900     0.05210401     0.97647603     0.20844301    -0.26554338
Ti      0.04253098     0.08255001     0.11022201    -0.91162327    -0.44366895    -1.02039255
O       4.44805298     5.49275502     0.89276600    -0.54413099     0.67264866     0.02197883
O       4.27320202     0.91233698     1.00429201     1.59850351     0.54049751    -0.25025019
O       1.54556498     5.53708600     0.75017702     0.22546449     0.53004340    -0.04099831
O       1.44483498     0.86991797     0.92971098    -0.22045007    -0.08140990    -0.18859974
O       4.28540099     8.46692898     3.74609899     1.27356814    -1.64137564    -0.78974471
O       4.50409100     3.66417600     3.79605300    -0.81255940     0.13473794    -1.36102939
O       1.18797297     8.36964900     3.66212703     1.34663558     0.15345198     0.60847493
O       1.52308600     3.64538100     3.60476400     0.33644826     1.78791212     1.17821360
O       2.80110801     1.33723398     3.15834298     1.48005403     0.16287507     0.70752466
O       0.05225202     6.10775202     3.04780600     0.42034467    -2.03127715     1.88641318
O       0.02028299     1.49340498     3.27306501    -1.36634669    -0.41908637    -0.09424871
O       3.01334000     7.91663999     1.46729998    -0.54527436    -0.63788322     0.00489667
O       2.83055900     3.22419898     1.38446601     1.74724419     0.04897311    -0.13264223
O       5.92839199     7.83684101     1.38310698    -0.26028521     0.81974641    -0.99568167
O       0.04769898     3.30455799     1.26780899    -0.86350994    -1.18748500     1.27299504
