# total energy = -39040.58460025 eV

CRYSTAL
PRIMVEC
        7.60629642    -0.00000847    -0.00005503
       -0.00000847     7.60629642    -0.00005503
       -3.80314186    -3.80314186     9.70738094
PRIMCOORD
46 1
Ti      1.90145028     4.75408064     6.14902066     0.00011236    -0.00064689    -0.01292674
Ti      3.77283638     6.65563682     1.22943702    -0.00822445     0.00003728    -0.02443423
Ti      1.90144815     0.95093245     6.14904185     0.00017921    -0.00064715    -0.01273956
Ti      3.77284057     2.85248094     1.22946455    -0.00822445     0.00024888    -0.02443449
Ti     -1.90169885     4.75379040     5.89397546     0.00000771    -0.00000206     0.00114671
Ti      0.03013139     6.65571694     1.22937539     0.00828358     0.00006659    -0.02434193
Ti     -1.90169970     0.95064214     5.89400600    -0.00002828    -0.00000180     0.00110892
Ti      0.03013556     2.85255544     1.22940297     0.00828358     0.00037204    -0.02434193
Ti      3.75053950     0.95078524     8.52739880     0.01806406     0.00001440    -0.00689262
Ti      5.70485775     2.85237861     3.56251377    -0.00029362    -0.00005682    -0.01181011
Ti      3.75054852    -2.85236296     8.52741665     0.01824533     0.00001440    -0.00684299
Ti      5.70486206    -0.95076640     3.56254123    -0.00029362    -0.00010670    -0.01180985
Ti      0.05275908     0.95079472     8.52744567    -0.01756038     0.00003908    -0.00698209
Ti      1.90166040     2.85224032     3.68813503    -0.00021289     0.00011673     0.02338188
Ti      0.05277391    -2.85235352     8.52746552    -0.01783009     0.00003960    -0.00692655
Ti      1.90166469    -0.95091175     3.68816252    -0.00021289     0.00010773     0.02338214
O       1.90157772     2.85230861     5.74158976    -0.00011416    -0.00026302     0.02502996
O       3.77805521     4.75394595     0.79070580     0.00972880     0.00006891    -0.00472620
O       1.90158199    -0.95085665     5.74161728    -0.00011416     0.00013318     0.02502996
O       3.77806349     0.95079774     0.79073645     0.00974706     0.00006891    -0.00485862
O      -1.90152001     2.85229081     5.55872325    -0.00018461    -0.00003368    -0.02117459
O       0.02504539     4.75396440     0.79068503    -0.00940716     0.00009847    -0.00439530
O      -1.90151577    -0.95085527     5.55875073    -0.00018461    -0.00015015    -0.02117459
O       0.02505635     0.95081621     0.79070996    -0.00945009     0.00009822    -0.00440482
O       4.05350472     2.85236547     8.87029278    -0.01875466     0.00017663    -0.03068716
O       5.70468258     4.75391124     3.95447592     0.00000489    -0.00002443     0.00853941
O       4.05350888    -0.95076821     8.87032028    -0.01875466    -0.00000977    -0.03068716
O       5.70467917     0.95076303     3.95451155     0.00002417    -0.00002494     0.00846870
O      -0.25039053     2.85235987     8.87035586     0.01924266     0.00026534    -0.03082934
O       1.90157853     4.75388955     4.13469811    -0.00012650    -0.00007379     0.01140645
O      -0.25038629    -0.95076739     8.87038341     0.01924291    -0.00015504    -0.03082960
O       1.90158354     0.95074132     4.13472659    -0.00014295    -0.00007353     0.01148229
O       1.90162565     0.95083300     8.14568247    -0.00027022     0.00004757     0.02895603
O       3.79647477     2.85237597     3.20814941    -0.01353943    -0.00001671     0.01676900
O       1.90163736    -2.85231536     8.14570245    -0.00030725     0.00004808     0.02908099
O       3.79647906    -0.95076483     3.20817688    -0.01353969    -0.00004191     0.01676900
O       0.00669749     2.85239056     3.20815100     0.01339597    -0.00000103     0.01694666
O       0.00670176    -0.95074399     3.20817852     0.01339597    -0.00001028     0.01694640
O       3.91252049     4.75381214     6.54757108     0.00406157    -0.00003240    -0.00084049
O       5.70474610     6.65550406     1.55855480    -0.00015915     0.00008767     0.03316879
O       3.91252774     0.95066388     6.54759855     0.00394947    -0.00003240    -0.00073688
O       5.70475027     2.85235455     1.55858237    -0.00015889     0.00007173     0.03316853
O      -0.10940163     4.75382455     6.54754665    -0.00407057    -0.00005168    -0.00006891
O       1.90153925     6.65548442     1.68130987     0.00010979     0.00013858     0.01461904
O      -0.10940996     0.95067625     6.54759204    -0.00402918    -0.00005168    -0.00012367
O       1.90154343     2.85233523     1.68133740     0.00011030     0.00014784     0.01461904
