# total energy = -19902.29462351 eV

CRYSTAL
PRIMVEC
        6.72868456     0.00000000     0.00000000
        1.76282961     6.94099693     0.00000000
        0.00000000     0.00000000    12.13954201
PRIMCOORD
24 1
Ti      3.48347579     4.11322856     4.50368373    -0.32549561    -1.72544817     0.59382144
Ti      5.00803857     2.82776883     7.63585896     0.32549561     1.72544817    -0.59382144
Ti      6.52123496     2.82777123     1.56603915     0.28076174    -0.36498160    -0.27686883
Ti      1.97027943     4.11322643    10.57350368    -0.28076174     0.36498160     0.27686883
Ti      2.60206113     0.64273014     1.56608782    -0.32549561    -1.72544817    -0.59382144
Ti      5.88945326     6.29826751    10.57345501     0.32549561     1.72544817     0.59382144
Ti      1.08886464     0.64272748     7.63581029    -0.28076174     0.36498160    -0.27686883
Ti      7.40264975     6.29827011     4.50373240     0.28076174    -0.36498160     0.27686883
O       2.75039343     2.44404316     6.19471565     1.74812377     1.91572453    -0.56030015
O       5.74112086     4.49695423     5.94482704    -1.74812377    -1.91572453     0.56030015
O       1.85543991     2.44407118     0.12498342    -0.78464673     0.16876162     0.89748760
O       6.63607454     4.49692634    12.01455893     0.78464673    -0.16876162    -0.89748760
O       4.85970618     1.02645561     0.12494404    -1.74812377    -1.91572453    -0.56030015
O       3.63180818     5.91454177    12.01459831     1.74812377     1.91572453     0.56030015
O       5.75465985     1.02642765     6.19475504     0.78464673    -0.16876162     0.89748760
O       2.73685446     5.91456981     5.94478765    -0.78464673     0.16876162    -0.89748760
O       1.31672157     4.22190795     3.27919334     0.52633689     1.57801695     1.70655287
O       7.17479272     2.71908944     8.86034935    -0.52633689    -1.57801695    -1.70655287
O       4.29938469     2.71902471     2.79061664     0.54666070     1.65142403     0.91141450
O       4.19212968     4.22197274     9.34892585    -0.54666070    -1.65142403    -0.91141450
O       0.43530688     0.75140934     2.79057787     0.52633689     1.57801695    -1.70655287
O       8.05620749     6.18958812     9.34896462    -0.52633689    -1.57801695     1.70655287
O       3.31071499     0.75147406     8.86038805    -0.54666070    -1.65142403     0.91141450
O       5.18079938     6.18952333     3.27915457     0.54666070     1.65142403    -0.91141450
