# total energy = -4944.78165941 eV

CRYSTAL
PRIMVEC
        5.03156519     0.00000000     0.00000000
       -0.00000695     2.42260531     0.00000000
       -2.51581078    -1.21137034     5.42061522
PRIMCOORD
6 1
Ti     -0.00021495     1.81703431     1.35515352    -0.02565319    -0.02335848    44.94035942
Ti      2.51596235    -0.60579949     4.06546103     0.02565319     0.02335848   -44.94035942
O       0.00005354     0.60563971     0.88297380     0.02375366     0.02247608   -36.36918225
O       2.51569370     0.60559500     4.53764080    -0.02375366    -0.02247608    36.36918225
O      -0.00002055    -0.60566725     3.59328130    -0.00133543     0.00086569    -1.07349870
O       2.51576775     1.81690196     1.82733330     0.00133543    -0.00086569     1.07349870
