# total energy = -4988.73274910 eV

CRYSTAL
PRIMVEC
        2.98990107     0.00000000     0.00000000
        1.15316366     4.54058124     0.00000000
       -0.00000742    -0.00006139     4.72233703
PRIMCOORD
6 1
Ti      2.07152854     2.27025983     2.36116857     0.00000000     0.00000000     0.00000000
Ti      0.00000000     0.00000000     0.00000000     0.00000000     0.00000000     0.00000000
O       1.71968361     0.88488039     0.92031396    -1.45444017     0.67784589     0.62617698
O       2.42337341     3.65563928     3.80202318     1.45444017    -0.67784589    -0.62617698
O       0.35184177     1.38535460     3.28148348     1.45468340    -0.67640736     0.62473099
O       0.80131435     3.15516516     1.44085366    -1.45468340     0.67640736    -0.62473099
