# total energy = -4986.39553848 eV

CRYSTAL
PRIMVEC
        3.08607853     0.00000000     0.00000000
        1.85977791     4.46346667     0.00000000
       -0.00001186    -0.00006424     4.93908493
PRIMCOORD
6 1
Ti      2.47292221     2.23170107     2.46954241     0.00000000     0.00000000     0.00000000
Ti      0.00000000     0.00000000     0.00000000     0.00000000     0.00000000     0.00000000
O       1.90548020     0.86985129     0.96255488    -1.95627727     1.14446889     1.02911630
O       3.04036422     3.59355085     3.97652989     1.95627727    -1.14446889    -1.02911630
O       0.56743693     1.36182385     3.43209838     1.95593892    -1.14442390     1.02887205
O       1.29232910     3.10157847     1.50698645    -1.95593892     1.14442390    -1.02887205
