# total energy = -19517.09425849 eV

CRYSTAL
PRIMVEC
        5.17600016     0.00000000     0.00000000
        0.00000000     5.50899976     0.00000000
        0.00000000     0.00000000     9.26300011
PRIMCOORD
23 1
Ti      1.91782900     3.21092298     3.45760499     0.54256802    -0.31428097     2.51304061
Ti      3.39163500     2.30872800     5.85770899     0.95084881     0.41951986    -2.01453824
Ti      4.25105701     2.03699099     1.57059601     2.00022953    -0.36505462    -1.72615883
Ti      0.73274301     3.38245801     7.85142201    -0.02014126     0.80368035    -0.47158318
Ti      1.93979700     0.10798100     1.36979399     1.81302975     0.01959824    -0.91415401
Ti      3.16560398     5.29707099     7.87096802    -0.30291412    -0.55573053     1.35367192
Ti      0.83160300     0.59646801     5.89120602    -1.83124782    -0.47971069    -2.51289380
Ti      4.63367799     4.84570799     3.25720599    -0.75908249     0.70196516     3.79703150
O       1.82429401     1.81098600     4.84825100    -0.20141001     0.57081365    -1.71521441
O       3.57476298     3.61144100     4.49525199    -0.06504225    -0.19263612    -0.42098462
O       4.95438798     2.67483399     9.15706401    -0.09213783     0.08162793     0.70484325
O       3.53043301     0.65676300     0.26294902    -0.62664518     0.22041047     0.55475788
O       1.56470998     4.74878399     9.05473197     0.54585595    -0.34746621    -0.10107884
O       4.23955598     0.81593502     4.83427501     0.84985995    -0.66558815    -0.14290942
O       1.00557500     4.70741402     4.46679099    -0.01177617    -0.11717447     0.12005514
O       0.32177702     3.37855300     2.46967398    -0.48947472    -1.31115280    -1.06726943
O       0.06321102     2.31378699     6.39887603    -0.83029025     0.55938998     1.78706031
O       2.66813799     1.72198399     2.38948500    -0.88138863     0.20345070    -0.25332575
O       2.50702400     3.79596601     6.88901598    -0.54843091    -0.24368359     0.77618676
O       0.29458498     0.56541801     2.05774199    -1.15083057     1.27701393    -0.10968176
O       4.87651801     4.88447101     7.32359200     0.93772461     0.47143791    -0.72188350
O       2.31120699     1.19427399     7.08024301    -0.05183732    -0.49595776     0.97794825
O       2.96260899     4.36108302     2.25722699     0.22253292    -0.24047203    -0.41291984
