# total energy = -39034.76849033 eV

CRYSTAL
PRIMVEC
        5.93200024     0.00000000     0.00000000
        0.00000000     9.29399984     0.00000000
        0.00000000     0.00000000     9.29399984
PRIMCOORD
46 1
Ti      4.40732898     7.11339703     6.82075502     0.09857253     0.44562017     0.30040626
Ti      4.48146899     6.87908898     2.40707898    -0.12062309    -0.70418839    -0.10992293
Ti      4.47811401     2.10026799     7.11229999    -0.48757544     1.32468915    -0.37271677
Ti      4.38651199     2.59885700     2.01081598     0.44785291    -0.82545323     0.56211586
Ti      1.56671699     6.77375800     7.12134500    -1.21356371     1.38060218     0.55933162
Ti      1.50756402     7.13776802     2.24281802     0.56608951    -1.07911168     0.26427788
Ti      1.51596598     2.41277399     6.74464499     0.89439559     0.21117429     0.33837581
Ti      1.41280599     2.07133200     2.52451098    -0.68101297     1.53820983    -0.88268781
Ti      2.94821199     4.70942098     4.78479201    -0.23445281    -0.92180510    -1.38872275
Ti      2.91963901     4.79238100     9.08877299     0.11122905    -0.45412152     0.51474893
Ti      3.01716002     9.21843698     4.58318802    -1.05744961     0.48077333     0.79592127
Ti      2.93317399     0.01792498     9.26500500     0.06216493    -0.21499830     0.23940116
Ti      5.88854003     4.70225999     4.80015900     0.34301768    -0.61538169    -1.57541011
Ti      5.90210898     4.71479901     9.23710799     0.20063740     0.04464414    -0.08448571
Ti      5.92333200     9.09561700     4.91448198     0.69187023     0.31019008     0.27660324
Ti      5.89951400     9.23106500     9.08851603     0.35059833    -0.12287049     0.50241251
O       4.41156298     5.65248702     5.68426798     0.27161067    -0.87413735    -1.06198196
O       4.42341999     5.56288900     0.91741602     0.10632544    -1.15823535     0.39136138
O       4.36193198     0.81418598     5.64556501     0.77113892    -0.06966407    -0.54252019
O       4.58757501     0.93590802     0.80305701    -0.71450212     0.87383601     0.29376973
O       1.49638197     5.47711101     5.83672802    -0.44570630    -0.57745841    -1.08091068
O       1.52622598     5.70248898     0.73849601     0.09771250    -0.50618047     0.78645241
O       1.41481798     0.90841398     5.47610102     0.19752147     0.89129150    -0.28841977
O       1.42489600     0.70335499     0.80751300     0.12889048     1.93907299     2.17265548
O       4.38760998     8.45253001     8.09763099     0.52082445     1.47907906     2.00378254
O       4.46706097     8.33254097     3.91421802     0.34065175    -0.61693720    -1.10437689
O       4.40293702     3.64621900     8.32900602     0.36204463     0.81928130     1.80365679
O       4.39883299     3.94668500     3.80599598     0.56369838    -0.97033752    -1.01363749
O       1.52134199     8.20597098     8.53443400    -0.09944182     0.26729018    -0.51105888
O       1.46235302     8.40542699     3.81173501    -0.27874831     0.41881923    -1.30956668
O       1.51486799     3.88457002     8.24406503    -0.11217290    -0.48563400     0.39464854
O       1.43837399     3.71734403     3.97123999    -0.09406796    -0.65002217    -0.83942538
O       3.14981301     6.17292999     7.89406698     0.16127431    -0.68881216     0.46604219
O       2.81626598     6.07227402     3.21594202     0.77157935     0.28909289     0.27695394
O       2.86981702     1.43499101     7.82363502    -0.10706592    -0.63402553     0.72070671
O       3.06963102     1.50922500     3.05624903     0.62059743    -0.31590179     0.43008813
O       5.87199101     6.09279202     7.97549101    -0.49598681    -0.01404620    -0.35267295
O       0.11455597     6.12833098     3.38434802    -0.52824234    -0.17651221    -0.27189915
O       0.11906298     1.42939200     7.82444398     0.13861542    -1.22845941     0.80694180
O       2.74527299     7.93851999     6.10513402     1.07091551    -0.43425897    -0.47354724
O       3.22294700     7.97956901     1.42511402    -1.42864763    -0.27471708     0.50355048
O       3.10278202     3.27239401     6.06999797    -0.59947041    -0.58821540     0.05094283
O       0.14523000     7.78955998     6.17056599    -0.21869709     0.71552568    -0.73183188
O       5.86660002     7.79117799     1.48254298     0.02679193     0.79105417    -0.59696615
O       5.88659398     3.10463001     6.11667802    -0.76392080     1.39005201    -1.03256955
O       0.18004700     3.24141000     1.49326200    -0.23527300    -0.40881250     0.17018447
