# total energy = -19889.43067151 eV

CRYSTAL
PRIMVEC
        9.02133688     0.00000000     0.00000000
        0.00002954     4.11489868     0.00000000
        0.00000000     0.00000000    13.72976963
PRIMCOORD
24 1
Ti      3.26981808     2.43848516     5.09364661     0.25601486    -0.34185915     2.77950213
Ti      5.75154795     1.67641358     8.63612322    -0.25601486     0.34185915    -2.77950213
Ti      7.78033211     1.67641498     1.77118339     0.25544922     0.34183343    -2.77995336
Ti      1.24103392     2.43848389    11.95858657    -0.25544922    -0.34183343     2.77995336
Ti      3.26980351     0.38103589     1.77123847     0.25601486    -0.34185915    -2.77950213
Ti      5.75156252     3.73386292    11.95853149    -0.25601486     0.34185915     2.77950213
Ti      1.24101934     0.38103436     8.63606814    -0.25544922    -0.34183343    -2.77995336
Ti      7.78034669     3.73386445     5.09370169     0.25544922     0.34183343     2.77995336
O       2.85532038     1.44892576     7.00619640     1.04001033     1.07290478    -2.46561120
O       6.16604565     2.66597292     6.72357343    -1.04001033    -1.07290478     2.46561120
O       1.65542140     1.44894236     0.14135566    -1.04020573     1.07305467    -2.46636762
O       7.36594469     2.66595638    13.58841378     1.04020573    -1.07305467     2.46636762
O       6.16603114     0.60852358     0.14131112    -1.04001033    -1.07290478    -2.46561120
O       2.85533489     3.50637517    13.58845831     1.04001033     1.07290478     2.46561120
O       7.36593018     0.60850698     7.00624094     1.04020573    -1.07305467    -2.46636762
O       1.65543578     3.50639177     6.72352889    -1.04020573     1.07305467     2.46636762
O       0.32778387     2.50291462     3.70875334    -2.14200586     0.64443979    -0.00296345
O       8.69358216     1.61198406    10.02101649     2.14200586    -0.64443979     0.00296345
O       4.83846378     1.61194572     3.15617523    -2.14177164    -0.64436291     0.00276368
O       4.18290225     2.50295302    10.57359441     2.14177164     0.64436291    -0.00276368
O       0.32776936     0.44546528     3.15613141    -2.14200586     0.64443979     0.00296345
O       8.69359667     3.66943346    10.57363822     2.14200586    -0.64443979    -0.00296345
O       4.18288774     0.44550362    10.02106024     2.14177164     0.64436291     0.00276368
O       4.83847829     3.66939513     3.70870953    -2.14177164    -0.64436291    -0.00276368
