# total energy = -19071.80211085 eV

CRYSTAL
PRIMVEC
        7.60600008     0.00000000     0.00000000
        0.00000000     7.60600008     0.00000000
       -1.89786986    -1.89786986     4.85670466
PRIMCOORD
22 1
Ti      3.64066301     6.54026203     1.41493001     3.27441113     0.69207566    -1.45711206
Ti      3.67857899     2.80531899     1.15046902    -0.82636598    -1.94979681     0.46575577
Ti     -0.01944800     6.69996301     1.03299802     0.03946748     3.61433552     3.35712844
Ti     -0.20228298     2.79953699     1.04043100     0.15931949    -1.00993458    -0.42961427
Ti      5.61263320     3.07216324     3.49981482    -0.07890744    -0.93434026    -1.09192015
Ti     -1.23902175    -0.61556575     3.79889479    -1.65121988    -0.03123660    -1.14243103
Ti      1.73152024     2.73639525     3.68898383     2.19313073    -1.21594456     0.40231352
Ti      2.11345821    -1.23814877     3.84960182    -1.52537488     0.93191443    -0.46706163
O       3.80393198     4.55850000     0.78018200    -1.24547112     1.10828934     0.60464655
O       3.91514101     0.79517502     0.82562102    -0.48483465    -0.55258530     2.57449592
O      -0.12674499     5.11028502     0.49712800    -0.71775688    -3.49182190     1.10725781
O       6.97324401     0.90483002     0.47719098     0.15044122     3.66537451     1.42795729
O      -1.36694480     5.20240224     4.17970884     1.71764770    -2.59019816    -2.47728607
O       5.53176121     1.29069422     3.89373484     0.82398642    -1.57108037     0.64591252
O       1.98953622     4.48721220     4.34731282    -0.35848776     1.37953723    -1.60769983
O       2.08249425     0.70312025     4.09707580    -0.36827030     0.73649586    -0.76152633
O       3.55213923     2.75949124     3.12552081     1.23967199     0.92838302    -0.78124233
O       0.07560821     2.68774623     3.00010184    -2.12018259     0.62781272     0.60853715
O       5.65748600     6.79378100     2.07654302     0.93063067    -0.68493134     0.40602028
O       5.67869098     3.31422600     1.63791202    -0.27381256    -0.63950687    -0.00390165
O       1.93455799     6.35653798     1.93325103    -1.47226872     0.46312630    -0.59452026
O       1.68989098     2.49665599     1.22117498     0.59424541     0.52403241    -0.78570988
