# total energy = -4986.07673031 eV

CRYSTAL
PRIMVEC
        3.29802984     0.00000000     0.00000000
        1.75488782     4.86041296     0.00000000
       -0.00001140    -0.00006847     5.25097402
PRIMCOORD
6 1
Ti      2.52645312     2.43017219     2.62548701     0.00000000     0.00000000     0.00000000
Ti      0.00000000     0.00000000     0.00000000     0.00000000     0.00000000     0.00000000
O       1.99101445     0.94720955     1.02333751     0.69851679    -0.05568652    -0.52707891
O       3.06189179     3.91313483     4.22763656    -0.69851679     0.05568652     0.52707891
O       0.53543387     1.48293497     3.64882556    -0.69884410     0.05590994    -0.52650942
O       1.21944264     3.37740939     1.60214851     0.69884410    -0.05590994     0.52650942
