# total energy = -19516.96143381 eV

CRYSTAL
PRIMVEC
        5.17600016     0.00000000     0.00000000
        0.00000000     5.50899976     0.00000000
        0.00000000     0.00000000     9.26300011
PRIMCOORD
23 1
Ti      1.92432000     3.21071100     3.39404001    -0.92746539    -0.14457421     3.66475565
Ti      3.32495798     2.27569898     5.82180501     0.23337424    -0.67923660    -1.91564689
Ti      4.29396101     2.16061902     1.49328698     1.55542594    -0.43970431    -1.79624584
Ti      0.84279499     3.26256698     7.83280699    -1.02515629     1.30516701     0.84421175
Ti      2.06872098     0.32554498     1.38775501     0.26006332    -1.26660765    -0.99209446
Ti      3.13100299     5.16381098     7.88337501     0.58318272     0.83587906     0.48869207
Ti      0.73366198     0.45871301     5.98976899     0.18810789     0.68306806    -3.46767100
Ti      4.57874299     4.88239399     3.32573101     0.56095141     1.17793412     3.23705993
O       1.65862698     1.80838398     4.76226197     0.85205413     1.39423006    -0.61997496
O       3.60240101     3.50151099     4.48740800     0.20754184     0.42702723    -0.59067929
O       4.74451602     3.07117299     9.22075202     0.50672683     0.06046954    -0.13153769
O       3.27838901     0.95289498     0.11244800     0.86386784     0.60040398     0.81164358
O       1.78650398     4.67262702     9.07294901    -0.34679412    -1.01918053     0.16402976
O       4.36159299     0.61451401     4.88695799    -1.20993563     0.69428990    -0.62187578
O       1.06841898     4.72019302     4.43649099     0.23423736    -0.71538632    -0.25629383
O       0.21147002     3.36650602     2.51412799     0.93274438    -0.48798245    -0.37218198
O       5.07679001     2.15538598     6.71800499    -0.64363426    -0.81111419     0.02029630
O       2.81294301     1.78354001     2.51499902    -0.45689677    -0.23770526    -0.83611894
O       2.52117801     3.64010500     6.86865101    -0.02284452     0.54856537     0.62646083
O       0.32118403     0.71194698     1.97236500    -0.98221756     0.11287404    -0.06485764
O       5.07782497     4.74959501     7.10359402    -1.08457425    -0.24012698     1.41044910
O       2.28178701     1.15252403     6.99454403     0.03093784    -1.93771236     1.33686075
O       2.96879201     4.47922401     2.31343498    -0.30969695     0.13942249    -0.93928167
