# total energy = -4990.37183938 eV

CRYSTAL
PRIMVEC
        3.70806951     0.00000000     0.00000000
       -0.00000825     3.70806951     0.00000000
       -1.85406383    -1.85406796     4.73232138
PRIMCOORD
6 1
Ti     -0.00016329     2.78119258     1.18308022     0.00155629    -0.00200418    -0.00163882
Ti      1.85416061    -0.92719113     3.54924085    -0.00155629     0.00200418     0.00163882
O       0.00003704     0.92701108     0.77085643     0.00000977     0.00056384     0.44835222
O       1.85396017     0.92699026     3.96146469    -0.00000977    -0.00056384    -0.44835222
O      -0.00002094    -0.92699498     3.13701707     0.00060550     0.00010799     0.44704764
O       1.85401810     2.78099627     1.59530405    -0.00060550    -0.00010799    -0.44704764
