# total energy = -19518.56848676 eV

CRYSTAL
PRIMVEC
        7.60600008     0.00000000     0.00000000
        0.00000000     7.60600008     0.00000000
       -1.89786986    -1.89786986     4.85670466
PRIMCOORD
23 1
Ti      3.78252898     6.71270502     1.25120098     0.39014551    -0.09482720     0.18693958
Ti      3.73732100     2.92566200     1.17965399     0.99266448    -0.02953813     1.11482406
Ti     -0.03700298     6.57636700     1.21877898    -0.18202594     0.13338785    -0.47898358
Ti     -0.00007800     2.82137899     1.16256199    -0.53666399    -0.12619468    -0.75313604
Ti      5.69048120     2.79846123     3.55627184    -1.12282893    -0.56941086     0.81814307
Ti      5.73209824    -1.06671375     3.63340979    -1.28839287     0.86924171     0.56846443
Ti      1.95787020     2.91512920     3.64979582     1.35084653     0.12473583     0.61553492
Ti      1.84981120    -0.93664580     3.66316379     1.18265287    -0.00732559     0.00667227
O       4.13431802     4.74741400     0.70930400    -1.42465162     0.38045399     1.30813689
O       3.84842398     0.99202700     0.79882100    -0.70068218     0.26616507     0.36730151
O      -0.19404199     4.71331699     0.72920900     0.88445133     1.32908188     0.76589129
O       0.09921899     0.89696502     0.79575198    -0.06443213    -0.62158756    -0.24353884
O       5.73132824     4.68638621     3.91769482     0.38292508     0.02573572     0.88074817
O       5.55176422     0.90502222     4.12903779     0.90316640    -0.03575377    -1.40968136
O       1.88201820     4.80977622     4.13123583    -0.52450138    -0.83467013    -0.52094786
O       2.04099220     0.96032722     4.11816679    -1.22097184     0.11823634    -0.84672629
O       3.83648024     2.91794823     3.36437783    -0.85748585    -0.11669496    -2.07268247
O       3.77366325    -1.01702475     3.25159481    -0.10340467    -0.10612978    -0.49640667
O      -0.03319280    -1.09121577     3.30229782     0.66061589     0.60677954    -1.16142481
O       5.66631998     6.83431598     1.61033802     1.10382051    -0.48061161     0.58562193
O       5.78135099     2.78699898     1.65286302    -0.24075073    -0.22884446     0.45278558
O       1.88738501     6.66260400     1.59881503    -0.48915102    -0.35916602     0.44521650
O       1.80971502     3.05910002     1.67983598     0.90465404    -0.24306293    -0.13275253
