# total energy = -19916.64016921 eV

CRYSTAL
PRIMVEC
        7.73128062     0.00000000     0.00000000
        0.00002917     4.93705213     0.00000000
        0.00000000     0.00000000    11.80782253
PRIMCOORD
24 1
Ti      2.80223444     2.92569250     4.38061796     0.53208691    -0.39725024     1.95873191
Ti      4.92907485     2.01135957     7.42720470    -0.53208691     0.39725024    -1.95873191
Ti      6.66774173     2.01136123     1.52324619     0.53104047     0.39732377    -1.95937263
Ti      1.06356762     2.92569103    10.28457653    -0.53104047    -0.39732377     1.95937263
Ti      2.80222010     0.45716650     1.52329356     0.53243530    -0.39355145    -1.95900881
Ti      4.92908918     4.47988570    10.28452923    -0.53243530     0.39355145     1.95900881
Ti      1.06355322     0.45716471     7.42715733    -0.53166191    -0.39357922    -1.96005782
Ti      6.66775606     4.47988748     4.38066526     0.53166191     0.39357922     1.96005782
O       2.44700926     1.73841993     6.02544148     0.85955713     1.33338848    -1.72030442
O       5.28430009     3.19863207     5.78238118    -0.85955713    -1.33338848     1.72030442
O       1.41869653     1.73843987     0.12156816    -0.85914601     1.33350238    -1.72066592
O       6.31261289     3.19861220    11.68625413     0.85914601    -1.33350238     1.72066592
O       5.28428576     0.73010594     0.12152984    -0.85972297    -1.33349981    -1.72082456
O       2.44702359     4.20694606    11.68629245     0.85972297     1.33349981     1.72082456
O       6.31259849     0.73008607     6.02547974     0.85920540    -1.33354994    -1.72112229
O       1.41871073     4.20696600     5.78234286    -0.85920540     1.33354994     1.72112229
O       0.28091295     3.00299498     3.18958745    -2.13456175     0.71619005     0.37868764
O       7.45039640     1.93405703     8.61823515     2.13456175    -0.71619005    -0.37868764
O       4.14656215     1.93401113     2.71436138    -2.13438460    -0.71631578    -0.37969680
O       3.58474713     3.00304094     9.09346102     2.13438460     0.71631578     0.37969680
O       0.28089855     0.53446885     2.71432369    -2.13484740     0.71624301    -0.37931139
O       7.45041074     4.40258316     9.09349871     2.13484740    -0.71624301     0.37931139
O       3.58473280     0.53451481     8.61827278     2.13487645     0.71601856    -0.37887405
O       4.14657649     4.40253719     3.18954976    -2.13487645    -0.71601856     0.37887405
