# total energy = -19070.88463060 eV

CRYSTAL
PRIMVEC
        5.17600016     0.00000000     0.00000000
        0.00000000     5.50899976     0.00000000
        0.00000000     0.00000000     9.26300011
PRIMCOORD
22 1
Ti      1.72532099     3.31385198     3.27652101     1.80541645     0.83202138    -1.01846191
Ti      3.55342402     2.38319801     6.02926101    -2.18130159    -0.03328731    -2.25639377
Ti      4.32890100     2.30612202     1.49735100     0.38687506    -1.51799890    -0.51998241
Ti      1.10599400     2.90327500     7.82675098    -2.56720786    -0.44362525     2.22986126
Ti      1.85951002     0.56821201     1.21176298    -0.77704937     0.47300114    -3.10669004
Ti      3.25890698     5.41253001     7.91909098    -0.17971272    -0.44362139    -1.42337764
Ti      0.83307602     5.20712203     6.12407899    -0.58484597     1.49797051     3.65647129
Ti      4.40265799     5.14952902     3.58005798    -1.43965118    -1.42086207     0.53974160
O       3.42287800     2.86713198     4.20487000    -0.84703508     0.22797620     1.51162539
O       0.63413400     1.87841599     0.32248898    -0.94565595     1.71477475    -1.34213512
O       4.91438800     4.33084599     7.42976199    -1.02442275     0.11471598    -0.76985619
O       3.56963801     0.60669500     0.25233902     0.24310226     1.42991647     1.30071052
O       1.51554899     5.07911802     8.59010800     1.07072937    -0.11019341     1.99646646
O       4.32644498     0.33255499     5.33555398    -0.08488037    -0.04577491    -1.05359321
O       1.21506098     4.43639002     4.60840401    -0.85240278     0.58513393     0.07933939
O       5.05414101     3.64299801     2.62058099     0.85076550    -0.17206472    -1.46688380
O       4.75259502     1.90553600     7.12022500     2.74034936    -1.19489595     1.92881197
O       2.26716600     2.26556698     1.91687802     2.38138671    -0.64220139    -0.75675256
O       2.50460201     3.69466402     7.01825201     1.31646624     0.98136550    -1.74477285
O       5.08470401     0.96013100     2.60956501     1.06353593     0.49616576    -0.48324827
O       2.18887401     1.23802102     6.70849102    -0.83937885    -0.67153666    -0.11041632
O       2.59087198     4.87465499     2.27927902     0.46491784    -1.65697967     2.80953597
