# total energy = -19928.78705234 eV

CRYSTAL
PRIMVEC
        6.74659314     0.00000000     0.00000000
        0.00003137     5.87488546     0.00000000
        0.00000000     0.00000000    11.08807946
PRIMCOORD
24 1
Ti      2.44533410     3.48145157     4.11359854     0.35508285    -0.77487653     0.81173022
Ti      4.30129047     2.39343365     6.97448136    -0.35508285     0.77487653    -0.81173022
Ti      5.81851378     2.39343555     1.43039711     0.35481571     0.77471944    -0.81196882
Ti      0.92811080     3.48144985     9.65768292    -0.35481571    -0.77471944     0.81196882
Ti      2.44531866     0.54400896     1.43044157     0.35508285    -0.77487653    -0.81173022
Ti      4.30130591     5.33087644     9.65763846    -0.35508285     0.77487653     0.81173022
Ti      0.92809536     0.54400681     6.97443690    -0.35481571    -0.77471944    -0.81196882
Ti      5.81852921     5.33087853     4.11364300     0.35481571     0.77471944     0.81196882
O       2.13535039     2.06864696     5.65816225     0.97070210     1.32355118    -0.75242719
O       4.61127418     3.80623826     5.42991765    -0.97070210    -1.32355118     0.75242719
O       1.23800770     2.06867070     0.11415801    -0.97039640     1.32400086    -0.75318104
O       5.50861694     3.80621458    10.97392158     0.97039640    -1.32400086     0.75318104
O       4.61125875     0.86879546     0.11412201    -0.97070210    -1.32355118    -0.75242719
O       2.13536582     5.00608975    10.97395757     0.97070210     1.32355118     0.75242719
O       5.50860144     0.86877179     5.65819824     0.97039640    -1.32400086    -0.75318104
O       1.23802301     5.00611349     5.42988166    -0.97039640     1.32400086     0.75318104
O       0.24513830     3.57343839     2.99516700    -0.76727789     0.05666662     0.04926570
O       6.50148628     2.30144682     8.09291291     0.76727789    -0.05666662    -0.04926570
O       3.61844162     2.30139222     2.54890823    -0.76769235    -0.05658075    -0.04940582
O       3.12818296     3.57349300     8.53917149     0.76769235     0.05658075     0.04940582
O       0.24512280     0.63599560     2.54887280    -0.76727789     0.05666662    -0.04926570
O       6.50150177     5.23888961     8.53920692     0.76727789    -0.05666662     0.04926570
O       3.12816746     0.63605020     8.09294827     0.76769235     0.05658075    -0.04940582
O       3.61845711     5.23883501     2.99513157    -0.76769235    -0.05658075     0.04940582
