# total energy = -19905.96718495 eV

CRYSTAL
PRIMVEC
        6.64683234     0.00000000     0.00000000
        2.40244252     6.65380672     0.00000000
        0.00000000     0.00000000    12.08848559
PRIMCOORD
24 1
Ti      3.83284234     3.94303960     4.48474195    -0.29237105    -1.97557675     0.55726445
Ti      5.21643276     2.71076695     7.60374377     0.29237105     1.97557675    -0.55726445
Ti      6.71122190     2.71076921     1.55945264     0.06989212    -0.90406114    -0.00483753
Ti      2.33805323     3.94303753    10.52903321    -0.06989212     0.90406114     0.00483753
Ti      2.63162125     0.61613641     1.55950111    -0.29237105    -1.97557675    -0.55726445
Ti      6.41765388     6.03767027    10.52898475     0.29237105     1.97557675     0.55726445
Ti      1.13683200     0.61613396     7.60369530    -0.06989212     0.90406114    -0.00483753
Ti      7.91244313     6.03767278     4.48479042     0.06989212    -0.90406114     0.00483753
O       2.94970531     2.34291838     6.16866167     1.80633742     2.03393876    -0.71229071
O       6.09956979     4.31088816     5.91982405    -1.80633742    -2.03393876     0.71229071
O       2.06564122     2.34294522     0.12445777    -0.45531220    -0.42486518     1.35088253
O       6.98363395     4.31086138    11.96402762     0.45531220     0.42486518    -1.35088253
O       4.89834867     0.98398484     0.12441854    -1.80633742    -2.03393876    -0.71229071
O       4.15092643     5.66982170    11.96406685     1.80633742     2.03393876     0.71229071
O       5.78241283     0.98395799     6.16870090     0.45531220     0.42486518     1.35088253
O       3.26686221     5.66984856     5.91978483    -0.45531220    -0.42486518    -1.35088253
O       1.70279648     4.04722233     3.26540154     0.58522469     2.33735656     2.28348730
O       7.34647863     2.60658422     8.82308418    -0.58522469    -2.33735656    -2.28348730
O       4.50604268     2.60652224     2.77887974     0.58911683     1.98818596     1.36243398
O       4.54323243     4.04728431     9.30960578    -0.58911683    -1.98818596    -1.36243398
O       0.50157536     0.72031901     2.77884112     0.58522469     2.33735656    -2.28348730
O       8.54769974     5.93348754     9.30964440    -0.58522469    -2.33735656     2.28348730
O       3.34201131     0.72038099     8.82312267    -0.58911683    -1.98818596     1.36243398
O       5.70726379     5.93342556     3.26536299     0.58911683     1.98818596    -1.36243398
