# total energy = -4990.24506666 eV

CRYSTAL
PRIMVEC
        3.68905377     0.00000000     0.00000000
       -0.00000821     3.68905377     0.00000000
       -1.84455581    -1.84455992     4.70805306
PRIMCOORD
6 1
Ti     -0.00016246     2.76693005     1.17701314     0.00156914    -0.00152158    -0.00170387
Ti      1.84465209    -0.92243631     3.53103962    -0.00156914     0.00152158     0.00170387
O       0.00003685     0.92225717     0.76690332     0.00007405     0.00076593     0.54902612
O       1.84445268     0.92223647     3.94114948    -0.00007405    -0.00076593    -0.54902612
O      -0.00002084    -0.92224116     3.12092980     0.00075796     0.00004191     0.54882403
O       1.84451032     2.76673475     1.58712300    -0.00075796    -0.00004191    -0.54882403
