# total energy = -19894.99398321 eV

CRYSTAL
PRIMVEC
        6.89669807     0.00000000     0.00000000
        3.14394770     6.63277612     0.00000000
        0.00000000     0.00000000    12.68465761
PRIMCOORD
24 1
Ti      4.36282177     3.93057695     4.70591747    -0.32529609    -1.88488388     0.30503811
Ti      5.67782377     2.70219908     7.97874021     0.32529609     1.88488388    -0.30503811
Ti      7.22880471     2.70220132     1.63636070     0.04302383    -1.30702361     0.29061575
Ti      2.81184095     3.93057496    11.04829718    -0.04302383     1.30702361    -0.29061575
Ti      2.79084808     0.61418899     1.63641154    -0.32529609    -1.88488388    -0.30503811
Ti      7.24979751     6.01858724    11.04824635     0.32529609     1.88488388     0.30503811
Ti      1.23986709     0.61418655     7.97868937    -0.04302383     1.30702361     0.29061575
Ti      8.80077856     6.01858967     4.70596838     0.04302383    -1.30702361    -0.29061575
O       3.28988584     2.33551320     6.47288369     1.72563406     1.90321791    -0.77131966
O       6.75075969     4.29726283     6.21177406    -1.72563406    -1.90321791     0.77131966
O       2.37259096     2.33553999     0.13059568    -0.07106378    -0.97421089     1.70422654
O       7.66805467     4.29723616    12.55406173     0.07106378     0.97421089    -1.70422654
O       5.17878598     0.98087474     0.13055447    -1.72563406    -1.90321791    -0.77131966
O       4.86185958     5.65190135    12.55410286     1.72563406     1.90321791     0.77131966
O       6.09608094     0.98084800     6.47292483     0.07106378     0.97421089     1.70422654
O       3.94456455     5.65192811     6.21173285    -0.07106378    -0.97421089    -1.70422654
O       2.16290015     4.03443047     3.42644248     0.61866679     2.94581014     2.76568965
O       7.87774532     2.59834558     9.25821526    -0.61866679    -2.94581014    -2.76568965
O       4.93052678     2.59828385     2.91592670     0.43315211     2.15519203     1.89879099
O       5.11011876     4.03449218     9.76873077    -0.43315211    -2.15519203    -1.89879099
O       0.59092642     0.71804231     2.91588618     0.61866679     2.94581014    -2.76568965
O       9.44971905     5.91473373     9.76877129    -0.61866679    -2.94581014     2.76568965
O       3.53814502     0.71810402     9.25825565    -0.43315211    -2.15519203     1.89879099
O       6.50250051     5.91467201     3.42640197     0.43315211     2.15519203    -1.89879099
