# total energy = -19073.61136256 eV

CRYSTAL
PRIMVEC
        5.93400000     0.00000000     0.00000000
        0.00000000     9.29699974     0.00000000
        0.00000000     0.00000000     4.64899994
PRIMCOORD
22 1
Ti      4.32356398     6.78443002     2.29035201     1.05936714     0.42066323    -1.01249232
Ti      4.35474702     2.47674601     2.02093803     3.28264715    -0.49287629     2.50148736
Ti      1.53773601     7.22526002     2.63649399    -0.13846784     0.31641884     0.37248125
Ti      1.57564902     2.28901202     2.14817499    -1.46360307    -0.04732863     1.47368694
Ti      3.05557798     4.52336702     4.40937801    -1.50192127     0.66059841     1.48154090
Ti      3.03693300     0.21674100     4.56483002    -0.04079957    -0.70771929     0.04176347
Ti      5.88565098     4.60753600     4.38007900     0.46832661    -0.69510083     0.71265350
Ti      5.85655301     9.13816502     0.46095302     0.10776757    -0.09597700    -0.44492931
O       4.27878003     5.33390099     0.95264002     0.50333683     0.79924983     1.16204290
O       4.34205502     0.74854202     1.29546703     1.03976916    -0.11201606    -1.03459636
O       1.58241000     0.62890001     1.30616799    -0.90569996     0.89069346    -0.36430540
O       4.49825200     8.42865401     3.92193998    -0.08110445     1.09763160    -0.09344755
O       4.38842598     4.02539800     3.43366300     1.54069969    -2.11960769    -2.10771736
O       1.44739403     8.45793402     3.94861898     0.12850558     0.64707157    -0.49812468
O       1.57854701     3.86972802     3.46166600    -1.30925378     0.29887568     0.43890676
O       2.99585000     6.25077900     3.41215099    -0.95832301    -1.64366598     0.85924114
O       3.14344500     1.70669199     3.42204597    -0.20627583    -0.80449693     0.07851818
O       5.84198799     6.18022999     3.49471699     1.13200469     0.13838017    -0.63204424
O       2.97893798     7.81958401     1.51116697    -0.19744563    -0.57397174     0.20159796
O       2.95138499     2.87283302     1.12778398    -1.75760317     3.06996490    -3.15180701
O       0.08731499     7.67602902     1.49413202    -0.73869390    -0.53129810    -0.05034145
O       0.05788199     3.18689701     1.24693798     0.03676627    -0.51548889     0.06588557
