# total energy = -19960.45440231 eV

CRYSTAL
PRIMVEC
        5.93400000     0.00000000     0.00000000
        0.00000000     9.29699974     0.00000000
        0.00000000     0.00000000     4.64899994
PRIMCOORD
24 1
Ti      4.47215298     6.96710799     2.34322898     0.01089557    -1.31810841    -0.37620010
Ti      4.41497501     2.33273101     2.25579202     0.68866638     0.92157319     0.43245046
Ti      1.45882399     7.01922798     2.32772398    -0.11740536    -1.44930748    -0.67262192
Ti      1.53382597     2.32674501     2.41378202    -1.01468598     0.80614398    -0.52422190
Ti      2.99027301     4.65039898     4.60211002    -0.06424804     1.87999621     0.66520506
Ti      2.93405501     0.02116900     0.03969999    -0.37340608    -0.97915075     0.15602848
Ti      0.02675398     4.57066398     0.01139499     0.14168661     1.75421112     0.41960188
Ti      5.89526799     0.05052801     4.61184599     0.29524708    -0.88226486     0.27681767
O       4.47437399     5.59697601     0.95967300     0.04168377    -1.33822164    -1.21807960
O       4.44944599     0.81292299     1.03968798    -0.33967705     0.46414934    -0.39937680
O       1.44118498     5.58865099     0.83214202     0.09036068    -0.19862628     0.11553076
O       1.42011399     0.85040499     1.02333000     0.82617006    -0.19031595    -0.64895748
O       4.45763098     8.43554501     3.69183699    -0.33964003     0.63638401     0.67559052
O       4.39870302     3.73484201     3.77699098     0.63358150    -0.75307305    -0.72668864
O       1.50190098     8.42483398     3.73708900     0.09847483     0.48710776     0.05388906
O       1.53792800     3.82746698     3.70418302    -0.50346435    -1.29244596    -0.36265938
O       3.02269400     5.99374798     3.22161702    -0.39093098     0.73453179     0.03640992
O       3.00426001     1.48537202     3.31330201     0.20894026    -0.34495013     0.08625257
O       5.92251998     5.95858801     3.10648599     0.37573396     0.83772280     0.53701418
O       5.85340901     1.51130901     3.26638700     0.26404442    -0.29291149     0.24598036
O       2.96461198     7.61479501     1.35260298    -0.21504046     2.60566875    -0.75668957
O       2.83363998     3.17970798     1.32816198     1.35243239    -0.71458748     1.07323825
O       0.03040102     7.86124000     1.32523102     0.00072968     0.19109911     0.60669110
O       0.17563001     3.35938499     1.45817300    -1.67014887    -1.56462484     0.30479462
