# total energy = -39031.79961681 eV

CRYSTAL
PRIMVEC
        7.60600008     0.00000000     0.00000000
        0.00000000     7.60600008     0.00000000
       -3.79573973    -3.79573973     9.71340985
PRIMCOORD
46 1
Ti      1.95978942     4.58172046     6.06642063    -0.99295578     0.96872467    -0.00346096
Ti      3.76393099     6.69223300     1.28050602     1.37988715     2.04765637    -0.26626303
Ti      1.94092743     1.03864143     6.10945761     2.09830789    -0.00745260    -3.67733194
Ti      3.74712300     2.97505799     1.20538301     1.58046978    -3.20027206    -0.45155890
Ti     -1.89553254     4.81169247     6.14458461    -0.28868614    -0.45482883    -1.85801970
Ti      0.08583102     6.70332599     1.16493699    -1.45234318    -1.20521842    -0.20350726
Ti     -1.82662356     0.97169347     6.07335163    -1.60531462     0.44408393     0.09744202
Ti     -0.02120900     2.79315998     1.40641200    -1.19100690     1.19254314    -2.93426203
Ti      3.69330043     1.02049943     8.40720460     2.46177383    -0.57654824     1.59899407
Ti      5.64201201     2.83842099     3.58681103     0.47040587     0.05167816     2.15764615
Ti      3.83289543    -2.79153456     8.52949762    -1.93288383     1.14348699     0.26983223
Ti      5.65914899    -0.89326702     3.71993398    -0.26991888    -0.34718287    -2.13877167
Ti      0.04236244     0.84752944     8.23665961    -1.45065268    -0.05440045     5.75946502
Ti      1.95380999     2.74246099     3.39009801    -0.36630572     0.76890900     3.60512249
Ti     -0.02846857    -2.93964953     8.47225261     1.41132456     0.48703423     1.20680505
Ti      1.80526501    -0.97400502     3.80167302     0.89972446     1.27262866     0.23712059
O       2.03923846    -0.72352955     5.72779661    -1.11893166    -3.49622286    -2.36440868
O       3.91599097     0.93787899     1.01877897    -0.88087595     0.14660127    -1.88051172
O      -2.16456255     2.69955747     5.77750562     1.06302891     3.08888900    -1.06469396
O      -0.04895699     4.72563100     0.66196999     0.35985019     0.51458823     1.08650309
O      -1.71099256    -0.89514354     5.60195662    -0.82777931    -0.05962648     1.23802725
O       0.24798500     1.02836899     0.74353198    -0.60291492    -0.97534809     0.78012210
O       3.54504344     2.90515543     8.82200162     0.70294449    -0.14936598     0.31623706
O      -1.55230098     4.87490201     4.24450098    -1.61848484    -2.15859489    -0.84065206
O       3.53160747    -0.93956056     9.06491462     0.53087824    -0.24619273    -1.15675902
O       5.76209799     1.00600601     3.95363701     0.20873560    -0.63824471     0.74390424
O      -0.08195654     2.59617544     9.14783262     0.78522959     0.74518773    -1.61232808
O       1.97147101     4.49573000     4.11819198    -0.31818596     2.07327768     0.80856288
O      -0.08859755    -1.02280554     8.92981963     0.22499501     1.41984134     0.40473370
O       1.99611998     1.03148097     3.83387103    -1.11115329    -2.44472663     1.67352061
O       1.98060144     0.85037646     7.87792961    -1.30604350     0.65192016     3.03122685
O       3.79235199     2.66567600     3.30312598     1.03822315     1.72159383    -0.65269715
O       1.87632145    -2.81965658     8.02678162    -1.42681443    -0.58477449     0.60959850
O       3.70474400    -0.87488499     3.21880201    -0.39105594    -1.11957340     1.45988217
O      -1.78428456     1.23218647     7.95195363    -1.16549435    -1.28186895     0.71975437
O       0.00372800     2.82265500     3.32419703    -0.43151612     0.10074383    -0.87896511
O      -1.99183254    -2.58073855     8.07631462     1.23760122    -0.81282294     0.10966376
O      -0.09893302    -0.90338399     3.05989998     1.87473882     0.09660152     1.16054935
O       3.69370547     4.75457747     6.46496063     2.07485711    -0.08059691    -0.29218181
O       5.58327302     6.58278899     1.62135999     0.79438350    -0.55520962     0.29829539
O       3.84543746     0.81283547     6.43500560     0.43879311     0.49848618     0.25483267
O       5.63163198     2.66173299     1.76161799     0.75379630     1.34800263    -1.41072060
O      -0.04106357     4.81127543     6.50827564     0.33104122    -1.00037033     0.61138979
O       1.84808201     6.63824703     1.38826000     0.00038001    -0.78306601     1.02193084
O       0.12735746     0.80125844     6.54732062    -1.33658925     0.45486303    -4.94829144
O       1.94075598     2.81404798     1.61871802    -0.63546252     0.99516744    -2.62577762
