# total energy = -4990.17481363 eV

CRYSTAL
PRIMVEC
        3.14630476     0.00000000     0.00000000
        0.00000000     4.46028456     0.00000000
        0.00000000    -0.00006101     4.70680305
PRIMCOORD
6 1
Ti      1.57315238     2.23011161     2.35340152     0.00000000     0.00000000     0.00000000
Ti      0.00000000     0.00000000     0.00000000     0.00000000     0.00000000     0.00000000
O       1.57315238     0.86923181     0.91728658     0.00000000     0.01317177    -0.08064937
O       1.57315238     3.59099136     3.78951642     0.00000000    -0.01317177     0.08064937
O       0.00000000     1.36085509     3.27068906     0.00000000    -0.01310466    -0.08076918
O       0.00000000     3.09936814     1.43611394     0.00000000     0.01310466     0.08076918
