# total energy = -4975.87348359 eV

CRYSTAL
PRIMVEC
        4.76173462     0.00000000     0.00000000
        0.00000000     2.48697489     0.00000000
        0.00000000    -0.00013117     6.63193210
PRIMCOORD
6 1
Ti      2.38086708     1.24342180     3.31596605     0.00000000     0.00000000     0.00000000
Ti      0.00000000     0.00000000     0.00000000     0.00000000     0.00000000     0.00000000
O       2.38086708     0.48464921     1.29246591     0.00000000    -0.01490443     2.28526470
O       2.38086708     2.00219446     5.33946625     0.00000000     0.01490443    -2.28526470
O       0.00000000     0.75872107     4.60843330     0.00000000     0.01532867     2.28276764
O       0.00000000     1.72812259     2.02349880     0.00000000    -0.01532867    -2.28276764
