# total energy = -19074.69132654 eV

CRYSTAL
PRIMVEC
        7.60600008     0.00000000     0.00000000
        0.00000000     7.60600008     0.00000000
       -1.89786986    -1.89786986     4.85670466
PRIMCOORD
22 1
Ti      3.70435299     6.80198198     1.30338801     0.59088832    -1.25804999    -1.48035176
Ti      3.87886702     2.95029499     1.10137799     0.16807385     1.73399067     0.71237787
Ti     -0.02522202     6.58039901     1.08822502    -0.26048601    -1.85503234     1.44402257
Ti      0.01216197     2.64032402     1.16753001    -0.41449541     1.54487490    -0.62055706
Ti      5.71833625     2.71694724     3.56447382    -0.34462591     0.47147133     0.73854966
Ti      6.10460024    -1.15686577     3.74072080    -0.66554058     0.27553186    -0.85327567
Ti      1.90667220     3.05257124     3.52945880     0.42469806    -1.00482914     1.24601850
Ti      1.46025922    -0.86406575     3.84082981     0.63642669     1.17306908    -0.58612792
O       3.68212998     4.85408402     0.76791202     0.05797788     1.60891159     0.00642622
O       4.20292501     1.18175599     0.82605098    -1.16837733    -2.14503900     0.26550095
O       0.25726799     4.67801198     0.71281202    -0.34721681    -1.13683348    -0.47032591
O       7.06724398     0.73052798     0.59015598     1.15613630     1.33571816     1.77782105
O       5.56757423     4.55984522     4.09259483     0.81272730     1.31607518    -1.44187776
O       5.62190423     0.70765122     4.01016383     0.81682358     1.03786269    -0.32583860
O       1.98337522     5.00362321     4.23705281    -0.21265319    -1.19852790    -0.62331997
O       1.86370020     1.14272324     3.97421979    -0.36191633    -1.26428903     0.26938666
O       3.83219925     2.95590220     3.18738883     0.15704253    -0.32466771    -0.20308123
O       0.06421725     3.03740322     3.14406583    -0.97343287    -0.56965408    -0.13480839
O       5.78452500     6.32696999     1.92399101    -0.40061530     0.73440555    -0.34654601
O       5.76159898     3.15018000     1.53204101     0.45159593    -0.93451664     0.73017429
O       1.86803501     6.66667099     1.92598802     0.07676006     0.60423518     0.18767389
O       1.92499501     2.69968601     1.58724001    -0.19979073    -0.14470740    -0.29184140
