# total energy = -4990.52262766 eV

CRYSTAL
PRIMVEC
        3.74727136     0.00000000     0.00000000
        0.18723852     3.74259060     0.00000000
       -1.96728821    -1.87132694     4.78384784
PRIMCOORD
6 1
Ti      0.14027751     2.80708506     1.19596183     0.00121947    -0.00121947     0.00000000
Ti      1.82694368    -0.93582187     3.58788575    -0.00121947     0.00121947     0.00000000
O       0.04684905     0.93564153     0.77924970    -0.00015272     0.00014295     0.22711643
O       1.92037199     0.93562157     4.00459793     0.00015272    -0.00014295    -0.22711643
O      -0.04683057    -0.93562395     3.17117362     0.00014295    -0.00015272     0.22711643
O       2.01405161     2.80688699     1.61267406    -0.00014295     0.00015272    -0.22711643
