# total energy = -19918.04806372 eV

CRYSTAL
PRIMVEC
        6.38964231     0.00000000     0.00000000
        1.67400486     6.59125677     0.00000000
        0.00000000     0.00000000    11.52785966
PRIMCOORD
24 1
Ti      3.30795182     3.90597285     4.27675393    -0.23118905    -1.86982107     0.70833121
Ti      4.75569554     2.68528435     7.25110638     0.23118905     1.86982107    -0.70833121
Ti      6.19264560     2.68528663     1.48713020     0.09717848    -0.45190446    -0.21542304
Ti      1.87100179     3.90597083    10.04073024    -0.09717848     0.45190446     0.21542304
Ti      2.47094952     0.61034452     1.48717642    -0.23118905    -1.86982107    -0.70833121
Ti      5.59269787     5.98091295    10.04068402     0.23118905     1.86982107     0.70833121
Ti      1.03399936     0.61034199     7.25106016    -0.09717848     0.45190446    -0.21542304
Ti      7.02964802     5.98091541     4.27680015     0.09717848    -0.45190446     0.21542304
O       2.61180771     2.32089370     5.88257882     1.80349018     2.00325135    -0.60202686
O       5.45183958     4.27036351     5.64528149    -1.80349018    -2.00325135     0.60202686
O       1.76194875     2.32092030     0.11868581    -0.76724446     0.12916739     0.95090023
O       6.30169869     4.27033702    11.40917417     0.76724446    -0.12916739    -0.95090023
O       4.61483726     0.97473498     0.11864841    -1.80349018    -2.00325135    -0.60202686
O       3.44881010     5.61652223    11.40921158     1.80349018     2.00325135     0.60202686
O       5.46469637     0.97470843     5.88261622     0.76724446    -0.12916739     0.95090023
O       2.59895094     5.61654885     5.64524409    -0.76724446     0.12916739    -0.95090023
O       1.25037513     4.00917616     3.11396267     0.51187546     1.60268129     1.71379259
O       6.81327216     2.58208106     8.41389764    -0.51187546    -1.60268129    -1.71379259
O       4.08274903     2.58201959     2.65000417     0.65246626     1.64369478     0.83889702
O       3.98089834     4.00923768     8.87785594    -0.65246626    -1.64369478    -0.83889702
O       0.41337282     0.71354763     2.64996735     0.51187546     1.60268129    -1.71379259
O       7.65027455     5.87770964     8.87789276    -0.51187546    -1.60268129     1.71379259
O       3.14389601     0.71360909     8.41393439    -0.65246626    -1.64369478     0.83889702
O       4.91975134     5.87764812     3.11392585     0.65246626     1.64369478    -0.83889702
