# total energy = -39035.34187703 eV

CRYSTAL
PRIMVEC
        5.93200024     0.00000000     0.00000000
        0.00000000     9.29399984     0.00000000
        0.00000000     0.00000000     9.29399984
PRIMCOORD
46 1
Ti      4.45659999     6.98714200     6.90975200    -0.05869574     0.59005528     1.05936534
Ti      4.47953802     6.87809302     2.27325201    -0.99158178     0.76484125     0.32289700
Ti      4.49669702     2.34323099     6.96824598    -0.81445765    -0.61433910    -0.05580633
Ti      4.36131501     2.55038299     2.16783202    -0.03448905    -1.63276347     1.24674253
Ti      1.45683000     6.95998801     7.02896701    -0.28529151     0.35126424    -0.02636693
Ti      1.47061199     6.98297103     2.20314100     1.13870859     0.11391354    -0.13528481
Ti      1.47159298     2.29447800     6.97578998     0.80722668     0.16173093     0.33857585
Ti      1.36765500     2.09742102     2.60343697     1.09501242     0.73574613    -0.30996563
Ti      3.03941600     4.79381401     4.80242298    -1.43189210    -1.39150006    -0.65839677
Ti      2.99950498     4.89905498     8.98965698    -0.90487824    -2.70297887     1.74766766
Ti      2.91452398     9.23996200     4.74261802     0.68533449     0.74275778    -0.85704490
Ti      2.93248902     9.25685302     9.28091000     0.25078524     0.61158134     0.13066711
Ti      0.02807899     4.65942500     4.59306099     0.92384373    -0.87683264    -0.29112638
Ti      0.03170502     4.67891201     9.21893398     0.58797552    -0.53654675    -0.30714178
Ti      5.86719503     9.02733298     4.83267599    -0.78385174     1.50383494    -1.29147820
Ti      5.88672902     0.00358602     0.02931901    -0.37815671     0.44860959    -0.08883705
O       4.50394701     5.64019000     5.49945002     0.50471648     0.24060701     0.18514624
O       4.35441702     5.68005800     0.67909999     1.23451050    -0.42906226     1.61038998
O       4.53405302     0.76839400     5.74958501    -0.32228507     0.61748151    -0.83153544
O       4.42435298     0.84962302     0.97452198     0.04916260     1.35013742    -0.14573789
O       1.36689802     5.68744098     5.60758702     0.58282945    -1.00487311    -1.09060194
O       1.52372001     5.69893502     0.67396999    -0.16434035    -0.16599048     1.03764877
O       1.49982200     0.84346700     5.61871699    -0.49868158     0.66808495    -0.45283828
O       1.41124000     0.76726801     0.92438301     1.00741773     1.58639104     1.95115383
O       4.52827599     8.34908602     8.32256598    -0.89738424     0.21027364     0.21137355
O       4.40883401     8.26931302     3.82831398     0.85323916     0.33683726    -0.35033093
O       4.44323699     3.79467799     8.31744699     0.36310315    -0.36469029     1.37155318
O       4.38278701     3.76949698     3.83522598     0.44823421     0.01026230    -1.12256283
O       1.45442600     8.41699200     8.45863502     0.39478481    -1.38418475    -1.47822854
O       1.42042202     8.35596998     3.87675301     0.58090755     0.06370039    -1.62494320
O       1.50686201     3.87242402     8.23561502    -0.51919745    -0.47102936     1.19787741
O       1.52569400     3.65984198     3.90317001    -0.44337225    -0.33584868    -0.52403370
O       2.96206003     5.97890498     7.67510201     0.48476368     1.82014708    -1.66399519
O       2.96593699     6.05357501     3.09058199    -0.12664436    -0.59400835     0.86899720
O       2.91933198     1.44549502     7.90020099     0.44443437    -0.37797262     0.52215422
O       3.17953499     1.45705802     3.25716397    -0.98490257     0.32192640    -0.50463986
O       5.90592397     6.02026902     7.86942600     0.08435433     0.45914160    -0.23304668
O       0.13068598     5.99566101     3.09293598    -0.81151579    -0.58667171     0.49241529
O       0.09155603     1.48631099     7.94995201    -0.58687611    -0.36855415     0.42486801
O       3.02505000     7.89291798     6.02422001    -0.73949582    -0.55559529     0.82962485
O       3.06220402     7.88319699     1.37692598    -0.51505772     0.05498126     0.18596282
O       3.04859501     3.34186398     6.16622198    -0.17846805    -0.00276574    -0.78310895
O       0.01513198     7.81254701     6.09038903     0.38042339    -0.34468247     0.76714368
O       5.90536802     7.85965998     1.39583502     0.15781823     0.02446483     0.26633810
O       5.92227100     3.20317900     6.16510102     0.00468018     0.94035099    -1.53485994
O       0.16866900     3.20168302     1.59403301    -0.59275083     0.01176717    -0.40665097
