# total energy = -79406.59089185 eV

CRYSTAL
PRIMVEC
       10.35150501     0.00002646     0.00000000
        0.00002858    11.01713167     0.00000000
        0.00000000     0.00000000     9.26345890
PRIMCOORD
95 1
Ti      7.02061024     8.82543571     3.47743273     0.00178949    -0.01203354     0.00409757
Ti      7.15227437     3.22719482     3.41366818     0.00340620    -0.00976325     0.01438404
Ti      1.84664764     8.81372488     3.44668545    -0.01604395     0.03703804     0.00237441
Ti      1.77480098     3.13529055     3.50906840    -0.03030972     0.00440070     0.01579121
Ti      8.49083053     7.72519421     5.80303577    -0.03803769     0.03794384     0.00731685
Ti      8.49039155     2.22291390     5.83669920     0.02245294    -0.00488561     0.04393888
Ti      3.28890089     7.69928967     5.80226536    -0.02244214     0.00221526    -0.02806720
Ti      3.33770059     2.18713256     5.84510079    -0.04499072    -0.04466908    -0.02940726
Ti      9.53433054     7.76628548     1.19752068    -0.01806072     0.01758995    -0.00627067
Ti      9.67047244     2.18841684     1.15673184     0.01615810     0.00095234    -0.02148415
Ti      4.45110072     7.69033509     1.21893441     0.03641480     0.03767567    -0.02655076
Ti      4.47063313     2.22649347     1.21240215     0.00670364    -0.04320946    -0.00984784
Ti      5.89678645     8.81565429     8.11140996     0.00007353    -0.01861479    -0.02215289
Ti      5.91964089     3.30186733     8.10347919    -0.01310183     0.01691787     0.01404466
Ti      0.67618130     8.90204234     7.94746938     0.03697813    -0.02796461     0.01338105
Ti      0.73543474     3.30469748     8.06743125    -0.03182744    -0.00874818    -0.03449676
Ti      7.02624111     6.02974368     1.19166418     0.00261738     0.00533144     0.01855000
Ti      7.02501004     0.54234572     1.22034342     0.02445171     0.06048162     0.02266043
Ti      1.74477506     6.28656616     0.95547143    -0.03065579     0.02063800    -0.06188082
Ti      1.88321055     0.51956384     1.15528592     0.00094874     0.03348323    -0.00434105
Ti      8.41534799    10.47652227     8.10730183     0.01967512     0.00003240    -0.00559729
Ti      8.51138836     4.95060014     8.08783764     0.01395827     0.02468311    -0.02113448
Ti      3.32810594    10.45750608     8.08710238     0.01385105     0.01034767    -0.01848547
Ti      3.30613336     4.94418023     8.07529449     0.02109385     0.00434208    -0.02388787
Ti      5.89889552     6.14969559     5.96550453     0.00411377    -0.03495956    -0.00589400
Ti      5.89804090     0.54569173     5.82320731     0.03220488     0.02934375    -0.00104001
Ti      0.73271840     6.03610048     5.79651800    -0.02115119    -0.00142105    -0.01033532
Ti      0.69236218     0.50635591     5.85030377     0.00487841     0.02444529    -0.05475706
Ti      9.63290008    10.49039711     3.43002847    -0.00040572     0.00502317    -0.00982445
Ti      9.66448693     4.99227161     3.38820081    -0.05463519     0.00933285    -0.00143905
Ti      4.43346353    10.45990519     3.45015835     0.00505479    -0.00141076    -0.00421918
Ti      4.74337672     4.91156372     3.63215408     0.01894595    -0.03826806     0.03435381
O       6.81574150     7.44800897     4.74038972    -0.00378287    -0.01703048     0.03349892
O       6.82799909     1.92583384     4.72559842     0.05847462     0.00063043    -0.01024122
O       1.63819341     7.44754646     4.73463459     0.00020003    -0.02824255    -0.01458459
O       1.60000671     1.87520472     4.72597070     0.01252745    -0.02321964    -0.00462207
O       8.71738234     9.07918317     4.54156432     0.00723509     0.01133188    -0.01113699
O       8.75050959     3.56252834     4.53484981     0.00240244    -0.03222185     0.00415439
O       3.52699687     9.08128885     4.53812153     0.00430917    -0.01661756    -0.01000905
O       3.44223869     3.64802092     4.36436552     0.09495267     0.04858975     0.01168901
O       6.09739809     7.41976644     0.11734143     0.01852352    -0.01970160     0.02097224
O       6.12680542     1.92099850     0.09366100     0.01714849     0.00402018     0.00213145
O       0.89313574     7.48022079    -0.01946152     0.06358932    -0.02324201    -0.02197728
O       0.95556128     1.92609280     0.08433112    -0.02080075     0.01358623    -0.02593267
O       9.38291435     9.10665333     9.16281859    -0.03518890     0.00854455     0.00788172
O       9.41548544     3.57285280     9.16392808     0.01025022     0.01811369    -0.02077529
O       4.20161049     9.06973425     9.19357655    -0.01316482    -0.01852198     0.02169112
O       4.24134587     3.57616542     9.18667509    -0.00541423     0.01464835     0.02711075
O       8.69903991     6.33360150     0.09898125     0.00446652     0.01585137     0.02174948
O       8.69938093     0.82111960     0.09089006     0.02202511    -0.00022549     0.00553044
O       3.53340570     6.31911398     0.09223722    -0.02075010    -0.01576241     0.04518098
O       3.53864255     0.81630309     0.11410077     0.00210985     0.00545460    -0.00296088
O       6.79867339    10.18349860     9.19026492    -0.02910901     0.00530290     0.02925737
O       6.82484002     4.66726558     9.18338768    -0.00526434     0.01130823    -0.00144779
O       1.61828687    10.21128243     9.16049989    -0.00440893    -0.00637788    -0.02129646
O       1.66120344     4.67110315     9.20911918     0.00780253     0.03471068     0.00735002
O       9.41352001     6.31376328     4.71652214    -0.00913076     0.00086106    -0.01561920
O       9.40922717     0.80997169     4.73653718    -0.01668878    -0.01836720    -0.00164679
O       4.24506031     6.32662713     4.75200159    -0.01903080     0.01579249    -0.01433673
O       4.21664099     0.84314978     4.70723928     0.03249001    -0.01136428    -0.01594830
O       6.11462920    10.19887901     4.54749624     0.00208439    -0.01158025    -0.00537027
O       6.20969068     4.68760543     4.61406381    -0.04711265    -0.02026056     0.00418756
O       0.94195900    10.17467330     4.54748394     0.00962493    -0.04950455     0.00208825
O       1.02038213     4.73152652     4.43651131    -0.04331128    -0.05534662     0.03491996
O       5.35018688     8.84010676     2.51410851    -0.02370558     0.02142038    -0.00092637
O       5.42262954     3.34771868     2.52343669    -0.00659565    -0.02035003     0.00296448
O       0.18750962     8.86655483     2.47897752    -0.00248574    -0.01233950     0.00312338
O       0.17210937     3.37146196     2.46793008     0.00077133     0.00846407    -0.00181983
O      10.17211488     7.66893052     6.73567595    -0.00210136    -0.01435627    -0.01520242
O      10.17379850     2.14130134     6.76809566    -0.00171698     0.01704462     0.03606951
O       4.97469059     7.65759747     6.79409392     0.00235950     0.02819704     0.01603443
O       4.97358961     2.17950939     6.74286795     0.03225810     0.00933311     0.01803964
O       7.92781536     7.66946777     2.13775262    -0.00337586    -0.03032360    -0.00073071
O       7.97474125     2.11983041     2.13706201     0.00570297    -0.02607948    -0.00256031
O       2.74320259     7.53007014     2.15987658    -0.00871373    -0.02157799    -0.01610205
O       2.77806093     2.26617095     2.11481537    -0.02157131    -0.04624491     0.01289974
O       7.54905940     8.85456164     7.13866386    -0.01741280    -0.04080496    -0.02045853
O       7.58554917     3.35704385     7.13535171     0.01627843     0.00101841    -0.02221100
O       2.38091505     8.89366741     7.11358262     0.00698980     0.00320745    -0.01094853
O       2.41135919     3.36277887     7.11067026    -0.01157331     0.01001059    -0.01421718
O       5.33397002     6.05283351     2.15302847    -0.01113674    -0.01032093     0.03893731
O       5.36141026     0.59294739     2.14169614    -0.00811106    -0.01410533     0.00077724
O       0.21044409     6.13901592     2.08897597    -0.00539803     0.00337715     0.01324967
O       0.20834325     0.61526423     2.14895219    -0.00431097     0.01091177    -0.00422715
O      10.12628990    10.41349411     7.11952357    -0.01461621     0.03365344    -0.02553184
O      10.17921084     4.89683339     7.11314873     0.00418164     0.00045149     0.02852537
O       4.98279123    10.41954037     7.14041080     0.00191933     0.00293312     0.00670647
O       4.99668551     4.90248048     7.14288185     0.00241581     0.03333051     0.03654233
O       7.58383384     6.11055293     6.79336226     0.02612036     0.02195569     0.00447089
O       7.55868088     0.60252418     6.77314842    -0.01273751     0.01465015    -0.00653703
O       2.39454685     6.10684796     6.77125979    -0.00037255     0.02211484     0.00655837
O       2.41709565     0.63972665     6.74692380    -0.01020934    -0.01005559     0.04623951
O       7.95007618    10.40892795     2.50546242     0.02908896     0.02567762     0.00944264
O       7.97285600     4.90507185     2.49549786    -0.01239426     0.00130741    -0.00566054
O       2.77299812    10.39801814     2.48512950    -0.01071379     0.00006891    -0.00471489
