# total energy = -19937.27617771 eV

CRYSTAL
PRIMVEC
        4.81496708     0.00000000     0.00000000
        1.50356859     4.89904189     0.00000000
        0.00000000     0.00000000     8.71854976
PRIMCOORD
24 1
Ti      2.63620731     2.90316771     3.23451978     3.41086169    -2.11000333     0.90500397
Ti      3.68232828     1.99587429     5.48403003    -3.41086169     2.11000333    -0.90500397
Ti      4.76515380     1.99587598     1.12472029    -6.32163899     0.70864257     2.46195457
Ti      1.55338187     2.90316621     7.59382962     6.32163899    -0.70864257    -2.46195457
Ti      1.88442313     0.45364685     1.12475525     3.41064571    -2.11048130    -0.91150243
Ti      4.43411249     4.44539530     7.59379466    -3.41064571     2.11048130     0.91150243
Ti      0.80159759     0.45364502     5.48399508     6.32177989    -0.70940876     2.47228296
Ti      5.51693802     4.44539713     3.23455473    -6.32177989     0.70940876    -2.47228296
O       2.05339952     1.72503597     4.44900921    -1.83832762    -0.69134573    -1.00896553
O       4.26513608     3.17400609     4.26954060     1.83832762     0.69134573     1.00896553
O       1.41298233     1.72505573     0.08976237     1.79787181    -0.96412522    -0.91166441
O       4.90555332     3.17398636     8.62878720    -1.79787181     0.96412522     0.91166441
O       3.51335187     0.72448508     0.08973409     1.83865492     0.69106959    -1.00915219
O       2.80518372     4.17455698     8.62881548    -1.83865492    -0.69106959     1.00915219
O       4.15376912     0.72446535     4.44903750    -1.79684285     0.96350867    -0.91126332
O       2.16476644     4.17457676     4.26951231     1.79684285    -0.96350867     0.91126332
O       1.08949454     2.97987503     2.35509780    -0.59064072    -2.46637122    -2.78099157
O       5.22904106     1.91916702     6.36345201     0.59064072     2.46637122     2.78099157
O       3.17143089     1.91912134     2.00420483     1.66956394    -2.92969421    -3.15424030
O       3.14710471     2.97992071     6.71434484    -1.66956394     2.92969421     3.15424030
O       0.33771029     0.53035403     2.00417698    -0.59036124    -2.46646121     2.78196448
O       5.98082526     4.36868803     6.71437268     0.59036124     2.46646121    -2.78196448
O       2.39532050     0.53039970     6.36347981    -1.66945801     2.92974409    -3.15558344
O       3.92321510     4.36864235     2.35506995     1.66945801    -2.92974409     3.15558344
