# total energy = -39040.39538622 eV

CRYSTAL
PRIMVEC
        7.60629642    -0.00000847    -0.00005503
       -0.00000847     7.60629642    -0.00005503
       -3.80314186    -3.80314186     9.70738094
PRIMCOORD
46 1
Ti      1.92047543     4.73644560     6.07790434     0.00780716     0.00730605    -0.01877137
Ti      3.80309917     6.64784538     1.20771982     0.00001003    -0.01454345     0.01712047
Ti      1.81655754     0.95340084     6.01489410     0.00251068    -0.00509567    -0.00774314
Ti      3.80309346     2.87592666     1.18550812    -0.00013498     0.01051710     0.03254478
Ti     -1.92072330     4.73636400     6.07798893    -0.00782053     0.00735464    -0.01894647
Ti     -0.00002250     6.67587899     1.35826062    -0.00004242     0.02517522     0.01439510
Ti     -1.81658743     0.95332242     6.01493613    -0.00249037    -0.00512755    -0.00766086
Ti     -0.00004656     2.79820723     1.16425152    -0.00007790    -0.00183654     0.00584103
Ti      3.80318994     0.94305272     8.64350472     0.00002005     0.03874782     0.00865768
Ti      5.70946875     2.86187928     3.60685426     0.01286709    -0.01068962     0.00646684
Ti      3.80320044    -2.81555239     8.50091974     0.00001800     0.00362860     0.00011673
Ti      5.67784087    -0.95824313     3.66186483     0.00092020    -0.00082198    -0.00472338
Ti      0.00008699     0.94006020     8.42708624    -0.00015889     0.00393739     0.00959253
Ti      1.89706041     2.86191741     3.60686305    -0.01275165    -0.01053921     0.00641953
Ti      0.00008812    -2.89909049     8.49349799    -0.00000257     0.00943827     0.01129126
Ti      1.92858105    -0.95816250     3.66187268    -0.00097111    -0.00092277    -0.00480565
O       2.00284556     2.82994343     5.64623137     0.00616859    -0.00454880     0.00763078
O       3.80317241     4.75391793     0.75243896    -0.00003960    -0.00111663    -0.00781976
O       2.05232145    -0.92698652     5.70088233     0.00314703     0.00336326     0.00686588
O       3.80316327     0.95415969     0.75758257     0.00002854    -0.00623493     0.01395904
O      -2.00300412     2.82990676     5.64625568    -0.00615445    -0.00453491     0.00768632
O       0.00004532     4.82938309     0.82223016    -0.00003420    -0.00549471    -0.01026925
O      -2.05245429    -0.92700463     5.70091969    -0.00311026     0.00331081     0.00686665
O       0.00008168     0.87230186     0.78175295    -0.00001183     0.00538621    -0.01710864
O       5.74041869     4.74966320     4.09372815     0.00752434     0.00621487    -0.01097939
O       3.80310784    -0.94516676     8.91709834     0.00001131     0.00146244    -0.00129789
O       5.65314972     0.95519365     4.04777213     0.00266701    -0.01039883    -0.00077493
O      -0.00003977     2.83822659     8.88999864     0.00000514    -0.01206465     0.00567263
O       1.86586778     4.74970018     4.09373316    -0.00744052     0.00622541    -0.01100767
O      -0.00003592    -0.92243874     8.83324761     0.00001003    -0.00226077     0.00245489
O       1.95324558     0.95522516     4.04779587    -0.00259219    -0.01036721    -0.00081941
O       2.03975552     1.12471563     8.01478295     0.00687230    -0.00878855    -0.00692913
O       3.80318375     2.89963621     3.16108038    -0.00001337     0.00245438     0.01473037
O       1.92013150    -2.96233631     8.09856550     0.00444621     0.00221038    -0.00430454
O       3.80316671    -0.99721990     3.22368187     0.00000283    -0.00874278     0.00112049
O      -2.03980627     1.12475079     8.01475001    -0.00677126    -0.00879369    -0.00696152
O       0.00003626     2.81936111     3.22524905     0.00001260    -0.00220164     0.01420355
O      -1.92015864    -2.96231989     8.09855778    -0.00448349     0.00220344    -0.00421275
O       0.00001047    -0.92368350     3.32682137    -0.00005914     0.00332984    -0.00666713
O       3.80308199     4.70978672     6.50003413    -0.00000823    -0.00979873     0.00364274
O       5.69018127     6.65717027     1.67271519     0.01040320     0.00680468    -0.01045385
O       5.71710238     2.84959353     1.59683228     0.01133317     0.00209905     0.00426058
O      -0.00003584     4.77964464     6.48175815     0.00005554    -0.00466450    -0.00933131
O       1.91612815     6.65718220     1.67272922    -0.01045848     0.00682525    -0.01050399
O      -0.00002126     0.89719231     6.44798791     0.00010773    -0.01044151    -0.02373643
O       1.88924782     2.84965295     1.59685956    -0.01132083     0.00203451     0.00428886
