# total energy = -19518.15606553 eV

CRYSTAL
PRIMVEC
        5.93400000     0.00000000     0.00000000
        0.00000000     9.29699974     0.00000000
        0.00000000     0.00000000     4.64899994
PRIMCOORD
23 1
Ti      4.53414499     7.07415700     2.26419800     0.53264690    -0.72622738     0.41607509
Ti      4.43809799     2.23769998     2.31837898    -0.93317735    -0.25531295     0.24350310
Ti      1.46675001     7.13391799     2.21347800     0.10661906    -0.80657773     0.51813044
Ti      1.42714702     2.33042300     2.35679799     0.90312346    -0.61912727    -0.23120499
Ti      2.99756300     4.56907201     0.11368400    -0.31496925    -0.90327978     0.95304273
Ti      2.93635498     9.24098998     4.58983698     0.04159532     1.17052549     0.01674252
Ti      5.93017701     4.61124802     0.02991000     0.18176369     0.84839468    -0.92964260
Ti      5.89282297     0.08416898     0.00026898     0.37719949     0.32881028     0.21447405
O       4.42511198     5.55510999     0.91997401    -0.12913885     0.28472690     0.22080694
O       4.37602100     0.90158701     0.88516198     0.94215282    -0.04432995     0.13601526
O       1.52378499     5.66244201     0.96242599     0.21007978    -0.83288989    -0.46222024
O       1.58722800     0.92528399     1.02099601    -0.84098090    -0.66767614    -1.15846958
O       4.52201402     8.37454500     3.68455599    -0.18058664    -0.24061704     0.38808271
O       4.41463200     3.74382702     3.71337202    -0.05550268     0.43753790     0.43654468
O       1.50701500     8.38865101     3.78443402    -0.88269090    -0.71180066    -0.70964788
O       1.46181400     3.73384599     3.79179403     0.36137717     0.03531977    -0.09268059
O       2.94911598     1.33640201     3.26217401     0.08244785     0.64372785    -0.26797333
O       0.06725901     5.98641898     3.26881402    -0.39425722     0.80996233    -0.67701439
O       5.92771999     1.31792700     3.18016001    -0.01062792     0.20691089     0.76563161
O       3.01677002     7.89471099     1.32889002     0.04078388    -1.33792185     1.61786007
O       2.96725401     3.18561799     1.46480200    -0.16968799     0.84975891    -0.49030930
O       0.02061098     7.95848098     1.47057802    -0.41186954     0.33064630    -0.63884944
O       5.86619202     3.06615702     1.37855002     0.54369956     1.19943910    -0.26889687
