# total energy = -19516.22720313 eV

CRYSTAL
PRIMVEC
        5.17600016     0.00000000     0.00000000
        0.00000000     5.50899976     0.00000000
        0.00000000     0.00000000     9.26300011
PRIMCOORD
23 1
Ti      1.89715802     3.20775501     3.43129102    -1.34686209    -1.41662746     2.15565611
Ti      3.35401098     2.23352202     5.76579101     1.13883406     1.21550361    -1.69164715
Ti      4.35687701     2.05048998     1.56030098     0.99608096    -0.24996351    -0.78799019
Ti      0.80194299     3.38106898     7.79629101    -0.55298973     0.58394274    -0.52769521
Ti      2.14454902     0.20138200     1.30453098    -1.29140492     1.08519363    -0.99690088
Ti      3.15597698     5.27998598     7.76957502     0.55456068    -0.95634763     1.55980968
Ti      0.76198899     0.61791398     5.92105903    -0.81531280    -1.15098330    -2.42651448
Ti      4.41238702     4.97244102     3.30823799     1.29348700     0.70387652     2.97947850
O       1.80791100     1.88804098     4.78382902    -1.89530277     0.04939657    -0.03680638
O       3.45811099     3.67234999     4.43370302     0.10032191    -0.42350199     1.29578557
O       0.22282199     2.68872997     0.00910000    -0.94732614    -0.57076814     1.75485183
O       3.57803298     0.86344598     0.25073598    -1.60738102    -0.88012751    -1.43838877
O       1.80987499     4.53353601     8.95496899     1.42958737     2.10654005     1.58640543
O       4.16236500     0.72208702     4.77791001     0.22606227     0.69723124     0.12754759
O       0.86638402     4.82227300     4.60900399     0.62985572    -1.22879313    -1.04874925
O       0.06209498     3.22980800     2.78224401     0.69047541     0.72712059    -0.77055373
O       4.98951497     1.97270802     6.79662999    -0.61757355     1.96389597    -0.00841111
O       2.76284299     1.55409299     2.59827400    -0.05893253     1.22308734    -1.34959260
O       2.48186803     3.58562800     6.92575802     1.14876341     0.85008235    -0.28528637
O       0.28945001     0.68217599     2.00603200     0.86708224    -1.36925667     0.17570488
O       5.02485301     5.01066201     7.32382399    -0.73722245    -1.39837185     0.08287851
O       2.32367901     1.16061901     6.95507598    -0.27019785    -1.45011275     1.43198132
O       2.79632700     4.38212400     2.32117002     1.06539535    -0.11101668    -1.78156304
