# total energy = -19946.57766039 eV

CRYSTAL
PRIMVEC
        6.05951242     0.00000000     0.00000000
        0.00003016     5.83494836     0.00000000
        0.00000000     0.00000000    10.35464318
PRIMCOORD
24 1
Ti      2.19629971     3.45778494     3.84149886     0.12886065    -0.59551296     0.46280928
Ti      3.86324287     2.37716330     6.51314467    -0.12886065     0.59551296    -0.46280928
Ti      5.22595032     2.37716531     1.33578155     0.12962324     0.59559087    -0.46271698
Ti      0.83359232     3.45778323     9.01886216    -0.12962324    -0.59559087     0.46271698
Ti      2.19628469     0.54031088     1.33582309     0.12886065    -0.59551296    -0.46280928
Ti      3.86325795     5.29463754     9.01882062    -0.12886065     0.59551296     0.46280928
Ti      0.83357724     0.54030875     6.51310320    -0.12962324    -0.59559087    -0.46271698
Ti      5.22596534     5.29463973     3.84154040     0.12962324     0.59559087     0.46271698
O       1.91788458     2.05458444     5.28389529     1.02619681     1.03664630    -0.23140014
O       4.14165806     3.78036380     5.07074824    -1.02619681    -1.03664630     0.23140014
O       1.11192838     2.05460804     0.10660686    -1.02585512     1.03659205    -0.23207917
O       4.94761432     3.78034027    10.24803644     1.02585512    -1.03659205     0.23207917
O       4.14164298     0.86288956     0.10657329    -1.02619681    -1.03664630    -0.23140014
O       1.91789966     4.97205868    10.24807001     1.02619681     1.03664630     0.23140014
O       4.94759924     0.86286603     5.28392892     1.02585512    -1.03659205    -0.23207917
O       1.11194328     4.97208228     5.07071467    -1.02585512     1.03659205     0.23207917
O       0.22017455     3.54914638     2.79704752    -0.06566934    -0.13328167     0.16718399
O       5.83936809     2.28580192     7.55759602     0.06566934     0.13328167    -0.16718399
O       3.24993612     2.28574762     2.38030717    -0.06558347     0.13353415    -0.16732694
O       2.80960645     3.54920069     7.97433624     0.06558347    -0.13353415     0.16732694
O       0.22015947     0.63167214     2.38027407    -0.06566934    -0.13328167    -0.16718399
O       5.83938311     5.20327616     7.97436928     0.06566934     0.13328167     0.16718399
O       2.80959144     0.63172645     7.55762906     0.06558347    -0.13353415    -0.16732694
O       3.24995120     5.20322180     2.79701448    -0.06558347     0.13353415     0.16732694
