# total energy = -19075.52165155 eV

CRYSTAL
PRIMVEC
        7.60600008     0.00000000     0.00000000
        0.00000000     7.60600008     0.00000000
       -1.89786986    -1.89786986     4.85670466
PRIMCOORD
22 1
Ti      3.61037000     6.67379498     1.34814202     0.63777806    -0.88392605     0.54877775
Ti      3.85242102     2.89100502     1.32013102     0.39621846     0.94580687    -1.09906345
Ti      0.05543402     6.67205002     1.06834198    -0.57105225    -0.63444411    -0.39695534
Ti      0.21996898     2.83412201     1.03847998    -1.09220426     0.32643406    -0.65508159
Ti      5.84774623     2.86799221     3.38023880    -0.65753494     0.31496617     1.12121402
Ti      5.99521623    -0.92586979     3.53192482    -0.31408814    -0.35201295    -0.40797329
Ti      1.89423622     2.80688324     3.61849880     0.63051443    -0.71180298     1.44680579
Ti      1.34084323    -0.97701175     4.08663683    -0.11236059     0.82251446    -2.06309637
O       3.56626101     4.78355898     0.89222798     0.15483909    -0.65084313     0.43824727
O       3.99221298     0.92921599     0.95880202    -0.21135221     0.05821725     0.91949548
O       0.22279399     4.74360398     0.60608501     0.42120933    -0.48439447     0.28325725
O      -0.15612401     0.93625299     0.54921899     0.40395645     0.32435507     1.20074882
O       5.80505025     4.75145221     3.87066080     0.20537440     0.29583304     0.05307993
O       5.59831525     0.96773724     3.82681381     0.91147646    -0.31666875     0.13740855
O       1.70243920     4.75469723     4.39374781    -0.23094017     0.33968939    -2.49402781
O       1.81360622     0.98551320     4.11310082    -0.15245362    -0.39352214     0.47379561
O       3.82960422     2.98139124     3.19054283    -0.12769697     0.14770016     0.80970985
O       0.12885821     2.87390825     3.02275581    -0.93092275     0.25361808     0.05812187
O       5.79030499     6.49742799     1.60070800    -0.16879993     0.40941028     0.89329593
O       5.74079702     2.96367301     1.45047500     0.87858561    -0.12410642     0.57304126
O       1.66518798     6.74762399     2.18534302     1.00185771    -0.42494540    -0.97114819
O       2.00822100     2.41582501     1.68248901    -1.07240418     0.73812183    -0.86965308
