# total energy = -19961.20367409 eV

CRYSTAL
PRIMVEC
        5.15630826     0.00000000     0.00000000
        0.54744674     5.46049749     0.00000000
        0.00000000     0.00000000     9.24024212
PRIMCOORD
24 1
Ti      2.19333023     3.23588579     3.42806400     0.55023736    -0.55716083     0.37749851
Ti      3.51042493     2.22461175     5.81217843    -0.55023736     0.55716083    -0.37749851
Ti      4.67001343     2.22461360     1.19202030    -0.74696231    -0.39612667     0.45831859
Ti      1.03374174     3.23588420     8.04822229     0.74696231     0.39612667    -0.45831859
Ti      1.91960696     0.50563709     1.19205737     0.55023736    -0.55716083    -0.37749851
Ti      3.78414821     4.95486066     8.04818522    -0.55023736     0.55716083     0.37749851
Ti      0.76001840     0.50563508     5.81214142     0.74696231     0.39612667     0.45831859
Ti      4.94373671     4.95486262     3.42810107    -0.74696231    -0.39612667    -0.45831859
O       1.82476949     1.92273401     4.71522494     0.06767403     0.25630257    -0.29965164
O       3.87898568     3.53776358     4.52501749    -0.06767403    -0.25630257     0.29965164
O       1.13894770     1.92275609     0.09513348     0.19927497    -0.33037608     0.23253760
O       4.56480752     3.53774155     9.14510875    -0.19927497     0.33037608    -0.23253760
O       3.60526240     0.80751467     0.09510352    -0.06767403    -0.25630257    -0.29965164
O       2.09849276     4.65298292     9.14513871     0.06767403     0.25630257     0.29965164
O       4.29108424     0.80749264     4.71525496    -0.19927497     0.33037608     0.23253760
O       1.41267087     4.65300495     4.52498753     0.19927497    -0.33037608    -0.23253760
O       0.52032873     3.32138424     2.49601998    -0.20964963     0.00708031    -0.15908295
O       5.18342638     2.13911335     6.74422245     0.20964963    -0.00708031     0.15908295
O       2.97995856     2.13906250     2.12413062     0.33371749    -0.10184195    -0.24811412
O       2.72379660     3.32143504     7.11611171    -0.33371749     0.10184195     0.24811412
O       0.24660545     0.59113533     2.12410108    -0.20964963     0.00708031     0.15908295
O       5.45714965     4.86936221     7.11614120     0.20964963    -0.00708031    -0.15908295
O       2.45007332     0.59118618     6.74425194    -0.33371749     0.10184195    -0.24811412
O       3.25368184     4.86931141     2.49599050     0.33371749    -0.10184195     0.24811412
