# total energy = -19895.11406112 eV

CRYSTAL
PRIMVEC
        8.74313973     0.00000000     0.00000000
        0.00002753     3.52961356     0.00000000
        0.00000000     0.00000000    13.53220042
PRIMCOORD
24 1
Ti      3.16898407     2.09164568     5.02034986     0.11465093    -0.08307983     2.39020046
Ti      5.57418344     1.43796776     8.51185068    -0.11465093     0.08307983    -2.39020046
Ti      7.54040471     1.43796896     1.74569634     0.10916625     0.08334980    -2.39123610
Ti      1.20276279     2.09164466    11.78650432    -0.10916625    -0.08334980     2.39123610
Ti      3.16897043     0.32683896     1.74575060     0.11465093    -0.08307983    -2.39020046
Ti      5.57419708     3.20277460    11.78645007    -0.11465093     0.08307983     2.39020046
Ti      1.20274915     0.32683770     8.51179643    -0.10916625    -0.08334980    -2.39123610
Ti      7.54041835     3.20277586     5.02040411     0.10916625     0.08334980     2.39123610
O       2.76726874     1.24283691     6.90537827     1.79013278     0.64227646    -1.98943552
O       5.97589883     2.28677652     6.62682226    -1.79013278    -0.64227646     1.98943552
O       1.60437183     1.24285113     0.13932159    -1.79079716     0.64219162    -1.99054906
O       7.13879580     2.28676231    13.39287858     1.79079716    -0.64219162     1.99054906
O       5.97588519     0.52196974     0.13927770    -1.79013278    -0.64227646    -1.98943552
O       2.76728232     3.00764369    13.39292247     1.79013278     0.64227646     1.98943552
O       7.13878216     0.52195553     6.90542223     1.79079716    -0.64219162    -1.99054906
O       1.60438528     3.00765797     6.62677831    -1.79079716     0.64219162     1.99054906
O       0.31767526     2.14691104     3.65538491    -1.63000133     0.48607135     0.29646733
O       8.42549225     1.38270240     9.87681562     1.63000133    -0.48607135    -0.29646733
O       4.68925664     1.38266959     3.11075832    -1.62789791    -0.48664213    -0.29708722
O       4.05391093     2.14694391    10.42144197     1.62789791     0.48664213     0.29708722
O       0.31766161     0.38210426     3.11071511    -1.63000133     0.48607135    -0.29646733
O       8.42550589     3.14750918    10.42148518     1.63000133    -0.48607135     0.29646733
O       4.05389729     0.38213707     9.87685872     1.62789791     0.48664213    -0.29708722
O       4.68927028     3.14747637     3.65534176    -1.62789791    -0.48664213     0.29708722
