# total energy = -19517.78930489 eV

CRYSTAL
PRIMVEC
        5.17600016     0.00000000     0.00000000
        0.00000000     5.50899976     0.00000000
        0.00000000     0.00000000     9.26300011
PRIMCOORD
23 1
Ti      1.83340502     3.25618500     3.43951099    -0.23880312    -0.22310705     2.09369636
Ti      3.42382401     2.26444402     5.77981098    -0.27677730    -0.26510063    -1.28540910
Ti      4.41752702     2.06368899     1.51006099     0.74400863    -0.26708295    -2.05562294
Ti      0.80866999     3.41705001     7.68943398     0.09654265     0.13466055     2.05463460
Ti      1.95799102     0.39710800     1.38030202     0.45949693    -1.23453724    -1.95131247
Ti      3.19018802     5.15608002     7.92855097    -1.73057547     1.54493070     1.46989971
Ti      0.74549703     0.48486897     5.90888102    -0.70861815    -0.50056080    -2.10407565
Ti      4.44674401     4.88942401     3.33356801     0.21233849     0.28334879     3.21745989
O       1.80017099     1.96890403     4.80273498    -1.16332048    -0.49563920    -0.53502594
O       3.52513103     3.60350202     4.39369298     0.28385015    -0.87816652     1.28441871
O       0.22983501     2.61480402     0.00410398    -0.29128501    -0.15713508     0.10936320
O       3.50963000     0.80019898     0.30811102    -0.19362548     0.08973539    -0.93487711
O       1.71816101     4.74863201     9.10399002    -0.46532716     0.31978879     0.44340439
O       4.26594399     0.64013498     4.84452401    -0.40641468     1.37987147    -0.81292373
O       0.87704202     4.61309903     4.57996999     0.91366782    -0.32420749    -0.10084745
O       0.21130000     3.43296999     2.46464997    -0.22228506    -0.51994076    -0.13606617
O       5.12974700     2.07892601     6.66760298    -0.30330647     0.89302236     0.39404896
O       2.67445500     1.92672998     2.30243402    -0.13197375     0.53286827    -0.21689089
O       2.67103302     3.49403699     7.20800302    -0.09126468    -1.56891936    -0.88405307
O       0.17108200     0.53580699     2.12775198     0.63676967     1.31126798    -0.51367883
O       4.86586599     4.91722698     7.24277700     1.85728899    -0.65157126    -0.31477925
O       2.40920802     0.81370998     6.74135801     0.83398647    -0.05284442     1.40559048
O       2.76016700     4.62659802     2.39835502     0.18562729     0.64931872    -0.62695371
