# total energy = -19517.37311285 eV

CRYSTAL
PRIMVEC
        7.60600008     0.00000000     0.00000000
        0.00000000     7.60600008     0.00000000
       -1.89786986    -1.89786986     4.85670466
PRIMCOORD
23 1
Ti      3.76890399     6.69894001     1.12626202    -0.25611719     0.96173564     0.22088047
Ti      3.75018598     2.85145801     1.28324298     1.09824147    -0.21526981    -0.21970393
Ti      0.00481498     6.55659498     1.16525402     0.47467930     1.74440081     0.29241758
Ti      0.05946100     2.76129600     1.18937000    -0.21261154    -1.64106865     0.57700487
Ti      5.69526624     2.82119622     3.74941280    -0.88542629     0.28495367    -0.76761059
Ti      5.63719523    -0.95229478     3.43042079    -0.11798025    -0.06355872     2.80903820
Ti      2.05413321     2.87951922     3.77058979    -0.55882228     0.68816553    -0.11345845
Ti      1.81828420    -0.84125377     3.62328880     0.31133448    -0.42619907    -1.34780157
O       4.03076100     4.86632299     0.89144998    -0.42775999    -1.92858545    -0.54212553
O       3.83591402     0.94063002     0.57811900     0.52673567     2.33958673     2.60136241
O      -0.24567202     4.65353002     0.90594299     1.28097215     1.54696058     0.17160269
O       0.08401398     0.82887599     0.74567599    -0.30272308     1.41147111     0.11546931
O       5.59618023     4.68794623     4.05720182     0.21715545     0.12686342    -0.32591496
O       5.70074920     1.00967421     4.16629382     0.57273632    -2.04557429    -1.16307623
O       1.74867321     4.92271725     3.97375379     0.42080104    -3.66184721    -0.37798599
O       1.80436123     1.03031123     4.03908681    -0.56044542     0.68296804     1.02732039
O       3.78339323     2.60078924     3.25678879     1.95534628     0.68457935    -0.33270344
O       3.67830720    -0.97771778     3.12178382     1.89067350     0.37228096     0.51836081
O      -0.06650176    -0.98194877     3.24038784     0.20561994     0.13239258    -0.98011517
O       5.71854803     6.93524702     1.63789598    -0.17230563    -0.53084867    -0.81631373
O       5.89872399     2.80907499     1.86699200    -0.34967170    -0.57680407    -0.39920968
O       2.00438700     6.80850399     1.46145299    -2.86122210    -0.85142061     0.30878575
O       2.01887302     2.64290402     1.77769101    -2.24921011     0.96481839    -1.25622296
