# total energy = -19069.40683505 eV

CRYSTAL
PRIMVEC
        5.17600016     0.00000000     0.00000000
        0.00000000     5.50899976     0.00000000
        0.00000000     0.00000000     9.26300011
PRIMCOORD
22 1
Ti      1.64003301     3.40356202     3.15339602     1.55206088    -1.15367344     0.84947326
Ti      3.55224998     2.49046001     5.92450302    -2.97788158     1.20131806     1.46051209
Ti      4.54295298     2.18807099     1.59132299     0.25199057    -0.16155661    -1.66454360
Ti      0.74013403     2.25398398     7.69687299     4.31019020     2.57438022     2.50571965
Ti      1.80704601     0.48044198     1.30124897     1.79045957     0.49827355    -3.61579745
Ti      3.51196700     0.02211702     7.81646700    -0.94053714    -0.21496076     2.38815257
Ti      0.72767201     5.31060999     6.36779300     2.16681805    -1.24522532     0.48675732
Ti      4.58865199     5.02087100     3.63469601    -1.77084256    -0.22332713     0.05714125
O       3.28891599     3.68210902     4.51608898     1.76516299    -0.59606909    -0.27503409
O       1.06707201     2.28143399     0.34484698    -1.17945930    -0.35315658     0.25670443
O       4.89588299     4.04038102     7.57310701    -2.63891930     2.22400634    -1.50515777
O       3.77911700     0.45561098     0.32713701    -0.91005696    -0.61051356    -0.39237568
O       1.60005298     0.25478800     8.19897097    -0.19379003     0.96974385     1.43638485
O       4.36284301     0.92870401     5.50645802     0.12674438    -1.53319438    -1.04847286
O       0.92582402     4.48630599     4.58169500    -0.98148069     0.28738748    -0.49613979
O       0.12056801     3.90756700     2.15913399    -1.45620935    -1.76784337     0.37950551
O       4.24911800     1.85880198     7.82512900    -3.62427078    -0.94431898    -1.52652262
O       2.69560298     1.67449002     2.31967700     1.19226006     2.13019010     1.57429296
O       1.87165199     3.94820702     6.77264201     3.14314187    -1.90135592     0.28391340
O       0.25790998     0.66738898     2.22196198    -1.08541628     0.68138399     2.02389603
O       1.80261399     1.55138598     6.29034500     0.81053954    -0.72123199    -2.21338229
O       2.64347802     4.55613399     2.31550502     0.64949638     0.85974353    -0.96502742
