# total energy = -4989.82947557 eV

CRYSTAL
PRIMVEC
        3.20860782     0.00000000     0.00000000
        0.00000000     4.54860702     0.00000000
        0.00000000    -0.00006222     4.80000707
PRIMCOORD
6 1
Ti      1.60430391     2.27427224     2.40000354     0.00000000     0.00000000     0.00000000
Ti      0.00000000     0.00000000     0.00000000     0.00000000     0.00000000     0.00000000
O       1.60430391     0.88644432     0.93545067    -0.00000000    -0.05535999    -0.14124103
O       1.60430391     3.66210010     3.86455635    -0.00000000     0.05535999     0.14124103
O       0.00000000     1.38780271     3.33545518     0.00000000     0.05538955    -0.14132614
O       0.00000000     3.16074177     1.46455184     0.00000000    -0.05538955     0.14132614
