# total energy = -19928.62953863 eV

CRYSTAL
PRIMVEC
        6.14955035     0.00000000     0.00000000
        1.92031858     6.25692851     0.00000000
        0.00000000     0.00000000    11.13510432
PRIMCOORD
24 1
Ti      3.36689521     3.70785007     4.13104428    -0.05532708    -2.16705330     0.78518511
Ti      4.70297362     2.54907858     7.00406010     0.05532708     2.16705330    -0.78518511
Ti      6.08593012     2.54908073     1.43646342    -0.31823456    -0.71899153     0.02810602
Ti      1.98393880     3.70784815     9.69864109     0.31823456     0.71899153    -0.02810602
Ti      2.40673606     0.57938592     1.43650806    -0.05532708    -2.16705330    -0.78518511
Ti      5.66313280     5.67754291     9.69859644     0.05532708     2.16705330     0.78518511
Ti      1.02377953     0.57938358     7.00401545     0.31823456     0.71899153     0.02810602
Ti      7.04608932     5.67754525     4.13108893    -0.31823456    -0.71899153    -0.02810602
O       2.62254830     2.20317094     5.68215850     1.80266049     2.08458025    -0.72586306
O       5.44732054     4.05375777     5.45294588    -1.80266049    -2.08458025     0.72586306
O       1.80462417     2.20319618     0.11464216    -0.53559750    -0.21002295     1.16228741
O       6.26524473     4.05373258    11.02046191     0.53559750     0.21002295    -1.16228741
O       4.48716136     0.92529344     0.11460604    -1.80266049    -2.08458025    -0.72586306
O       3.58270747     5.33163527    11.02049803     1.80266049     2.08458025     0.72586306
O       5.30508556     0.92526825     5.68219463     0.53559750     0.21002295     1.16228741
O       2.76478323     5.33166053     5.45290975    -0.53559750    -0.21002295    -1.16228741
O       1.39147401     3.80581865     3.00786947     0.51525826     1.91040312     1.90693239
O       6.67839483     2.45111006     8.12723491    -0.51525826    -1.91040312    -1.90693239
O       4.05046880     2.45105171     2.55971813     0.79483113     1.71263122     0.90486564
O       4.01940003     3.80587700     8.57538607    -0.79483113    -1.71263122    -0.90486564
O       0.43131477     0.67735433     2.55968256     0.51525826     1.91040312    -1.90693239
O       7.63855400     5.57957439     8.57542163    -0.51525826    -1.91040312     1.90693239
O       3.05924086     0.67741266     8.12727041    -0.79483113    -1.71263122     0.90486564
O       5.01062798     5.57951605     3.00783391     0.79483113     1.71263122    -0.90486564
