# total energy = -19957.91359725 eV

CRYSTAL
PRIMVEC
        7.60600008     0.00000000     0.00000000
        0.00000000     7.60600008     0.00000000
       -1.89786986    -1.89786986     4.85670466
PRIMCOORD
24 1
Ti      3.69683698     6.63857501     1.35791402    -2.67605041     1.01628315    -0.55826744
Ti      3.74031497     3.02905699     1.22804302     0.07587148    -1.30071720     1.79793506
Ti     -0.14921999     6.56242402     1.09784901     2.92199272     0.05597088     0.86823281
Ti      0.11934201     2.71290898     1.11563698    -0.47212953     0.31654971    -1.33232070
Ti      5.77520423     2.93310620     3.59705182    -0.18139474    -2.05415612    -2.94409573
Ti      5.81191521    -1.08833980     3.56693883    -1.08197152     2.27976948     0.55627226
Ti      1.87110323     2.93402723     3.75227883     0.62460501     0.89704871    -1.71721807
Ti      1.78410221    -0.93205079     3.78422081     1.29310596    -0.87377225    -0.01488772
O       3.67714000     4.86433698     0.74504199     0.46582364    -0.45981472     2.31203118
O       3.65260803     1.14301699     0.82578703     0.47370202    -1.98812477     1.17048769
O       0.18293901     4.72475500     0.49579199    -0.66635357    -0.66971477     3.29871861
O       0.42354400     0.82164600     0.58952902    -1.87977896     0.32638727     1.77506251
O      -1.50568576     4.68562123     4.13897283    -1.08876798     0.63265256    -1.69499165
O       5.75159022     0.85343622     3.83277282    -0.39913537    -0.11896524     0.35367388
O       1.53696823     4.76590822     4.26391681     0.48061212     1.42315806    -0.22265067
O       1.98268221     1.11957422     4.28135781     0.08856939    -1.32657479    -3.02989605
O       3.71422421     3.12995924     3.31643283     1.99160579    -0.09653570    -0.76640166
O       3.59427825    -1.27734175     3.33755484     2.30241936     0.75777740    -0.13916127
O       0.16214520     2.87950822     3.02683381    -1.59541947    -0.67410982     1.13589991
O      -0.01822777    -1.00032979     3.27391280    -0.92731858     0.50873666    -1.99723085
O       5.56812198     6.63596299     1.46652003     2.15889956    -0.22082185     0.95418225
O       5.95525801     3.03260703     1.53772199    -2.49289833    -0.31719943     0.41829370
O       1.81830500     6.33813902     1.79231599    -0.92347966     1.26870464    -0.42653332
O       1.90022200     2.86612098     1.52546402     1.50749105     0.61746762     0.20286551
