# total energy = -19518.15290125 eV

CRYSTAL
PRIMVEC
        5.93400000     0.00000000     0.00000000
        0.00000000     9.29699974     0.00000000
        0.00000000     0.00000000     4.64899994
PRIMCOORD
23 1
Ti      4.48195700     7.04638398     2.27254800     0.57986805    -0.35291001     0.02932396
Ti      4.51407298     2.27423798     2.37589002    -0.17432009     0.86438258    -0.55170161
Ti      1.44990502     7.05580402     2.26033702    -0.37668655    -0.35240324    -0.02806694
Ti      1.49009403     2.20645302     2.31288998    -0.14540494     1.53095983    -0.18021023
Ti      2.99887600     4.49330102     0.11963697    -0.22245141    -0.55391559     0.73716872
Ti      2.93829399     9.27952001     4.54635898     0.21728324    -0.63816707     0.06235210
Ti      0.03476102     4.62332802     4.64001102     0.22184952     0.21902002    -0.13791711
Ti      5.92775000     0.12310499     0.05299599    -0.66103010    -0.70400353    -0.07498214
O       4.47879299     5.63328402     0.89188200    -1.00530454    -0.48659791    -0.01436707
O       4.40932001     0.99528599     1.01597597     0.08558897    -1.40778955    -1.52192574
O       1.44740202     5.56385697     0.95043801     0.74362245    -0.12445815    -0.19859902
O       1.49446498     0.96079300     0.88983102     0.00831032    -0.27531717     0.05220190
O       4.47933201     8.42627398     3.75974901    -0.22651427     0.01720814    -0.37452991
O       4.37773300     3.69653900     3.65755700    -0.17059199     1.32525016     1.44307898
O       1.37298901     8.48151998     3.64083002     0.69778763    -0.32289931     0.59431689
O       1.47080202     3.66419299     3.75667401     0.44128991     0.99707520     0.33052958
O       2.87833402     1.43263998     3.24756697     0.88223967    -0.55055927     0.36089431
O       5.89736099     6.04965799     3.30443601     0.01457996     0.59729680    -0.98693760
O       0.01892301     1.41776301     3.24134703    -0.02835542    -0.22599774     0.46558402
O       2.93409798     7.87835603     1.29920699    -0.01901614    -0.48498377     1.02919729
O       3.01860500     3.19887499     1.41110998    -0.60565726     0.53556433    -0.21858524
O       0.01055301     7.89782700     1.44839200    -0.31952319     0.72406997    -0.60667927
O       5.90506602     3.27131301     1.46670302     0.06243592    -0.33082499    -0.21014560
