# total energy = -19937.47628433 eV

CRYSTAL
PRIMVEC
        5.91121453     0.00000000     0.00000000
        2.13655955     5.91741705     0.00000000
        0.00000000     0.00000000    10.75062948
PRIMCOORD
24 1
Ti      3.40865426     3.50665577     3.98840688     0.34364015    -2.54032774     0.88001232
Ti      4.63912004     2.41076112     6.76222272    -0.34364015     2.54032774    -0.88001232
Ti      5.96847798     2.41076313     1.38686500    -1.13654758    -0.82872728     0.33820252
Ti      2.07929635     3.50665393     9.36376472     1.13654758     0.82872728    -0.33820252
Ti      2.34037463     0.54794740     1.38690810     0.34364015    -2.54032774    -0.88001232
Ti      5.70739969     5.36946960     9.36372161    -0.34364015     2.54032774     0.88001232
Ti      1.01101660     0.54794522     6.76217962     1.13654758     0.82872728     0.33820252
Ti      7.03675773     5.36947184     3.98844998    -1.13654758    -0.82872728    -0.33820252
O       2.62325571     2.08362307     5.48596393     1.68395750     2.07887780    -0.85986463
O       5.42451859     3.83379382     5.26466566    -1.68395750    -2.07887780     0.85986463
O       1.83703271     2.08364694     0.11068379    -0.19955933    -0.55447377     1.26241675
O       6.21074166     3.83377000    10.63994551     0.19955933     0.55447377    -1.26241675
O       4.35623894     0.87508533     0.11064890    -1.68395750    -2.07887780    -0.85986463
O       3.69153536     5.04233155    10.63998040     1.68395750     2.07887780     0.85986463
O       5.14246200     0.87506146     5.48599882     0.19955933     0.55447377     1.26241675
O       2.90531224     5.04235544     5.26463077    -0.19955933    -0.55447377    -1.26241675
O       1.51434469     3.59930839     2.90401323     0.51691277     2.01096723     1.92029930
O       6.53342961     2.31810849     7.84661636    -0.51691277    -2.01096723    -1.92029930
O       4.00735021     2.31805337     2.47133574     0.99599123     1.56873629     0.77685268
O       4.04042409     3.59936351     8.27929368    -0.99599123    -1.56873629    -0.77685268
O       0.44606504     0.64059991     2.47130139     0.51691277     2.01096723    -1.92029930
O       7.60170926     5.27681698     8.27932803    -0.51691277    -2.01096723     1.92029930
O       2.97214444     0.64065503     7.84665060    -0.99599123    -1.56873629     0.77685268
O       5.07562986     5.27676186     2.90397894     0.99599123     1.56873629    -0.77685268
