# total energy = -19959.50806234 eV

CRYSTAL
PRIMVEC
        7.60600008     0.00000000     0.00000000
        0.00000000     7.60600008     0.00000000
       -1.89786986    -1.89786986     4.85670466
PRIMCOORD
24 1
Ti      3.80469600     6.85895802     1.07911100     2.83952584    -0.32971428    -0.33192131
Ti      3.78989502     2.83742899     1.18073399    -0.82689151     0.72651329    -0.31517726
Ti     -0.02395199     6.62377302     1.23975001    -1.85892550    -0.17010425     0.23693341
Ti     -0.15499501     2.68735898     1.34844100     0.19229673     0.44635319    -0.62769547
Ti      5.54788625     2.82806123     3.79546779     1.21507192    -0.55225080    -0.44119478
Ti      5.65543025    -0.96387080     3.61029882     1.89111701     0.55735187     0.38323232
Ti      1.96031421     2.82680121     3.68252379    -0.24397978    -0.46779234    -0.41094600
Ti      2.05717222    -0.93701775     3.41394184    -1.33689752     0.71825927     2.37385184
O       4.07903800     4.74181203     0.94099299    -1.44807463     1.70070181    -1.68315197
O       4.20012201     1.08730600     0.59884698    -1.84324819    -1.70718022     0.06194253
O      -0.31961703     4.75051397     0.82514302     0.75907684    -0.02614890     1.16143278
O      -0.08567099     0.84483698     0.70776600     0.16452855     1.04169697     1.38594853
O       5.50076121     4.71284920     4.09615381     0.50870863     0.13149681    -0.49894204
O       5.88006620     0.89833622     4.27468382    -0.39630613     0.13484233    -0.62466826
O       2.26366623     4.91375521     3.87432483    -1.40475719    -2.18017648     1.25523925
O       1.82843022     1.02549021     4.01739679    -0.35898887    -0.57740262     0.23259365
O       3.83810021     2.49335424     3.35745079    -1.48932131     0.57605819    -0.65358855
O       3.87143822    -0.87822076     3.13757182    -1.11385501     0.79767374    -0.94736471
O      -0.01268978     2.85367823     3.23665179     0.13880234     0.41898584     0.40806482
O      -0.05345378    -1.01430076     3.22976783     1.03406388    -0.39296730    -0.74326840
O       5.66145001    -0.58146203     1.64698698     0.34603539    -1.36603250     0.13493540
O       5.53311802     2.85564798     1.72622800     2.99390419    -0.36701611     0.36376984
O       1.92079102     6.70816801     1.54877100     0.34501878     0.22945562    -1.20180503
O       1.93590898     2.64957001     1.67896897    -0.10690445     0.65739687     0.48177889
