# total energy = -19903.53193848 eV

CRYSTAL
PRIMVEC
        7.88784695     0.00000000     0.00000000
        0.00003104     5.59670289     0.00000000
        0.00000000     0.00000000    12.25478443
PRIMCOORD
24 1
Ti      2.85898366     3.31660093     4.54643761     0.55689292    -0.70774886     1.62274953
Ti      5.02889447     2.28010196     7.70834695    -0.55689292     0.70774886    -1.62274953
Ti      6.80277116     2.28010391     1.58090567     0.55619615     0.70786636    -1.62328792
Ti      1.08510697     3.31659925    10.67387895    -0.55619615    -0.70786636     1.62328792
Ti      2.85896814     0.51824962     1.58095480     0.55689292    -0.70774886    -1.62274953
Ti      5.02890999     5.07845347    10.67382983    -0.55689292     0.70774886     1.62274953
Ti      1.08509145     0.51824753     7.70829775    -0.55619615    -0.70786636    -1.62328792
Ti      6.80278668     5.07845556     4.54648674     0.55619615     0.70786636     1.62328792
O       2.49656436     1.97069426     6.25352271     0.69311979     1.50652200    -1.64374646
O       5.39131377     3.62600870     6.00126185    -0.69311979    -1.50652200     1.64374646
O       1.44742726     1.97071681     0.12616988    -0.69252047     1.50650349    -1.64416992
O       6.44045100     3.62598615    12.12861428     0.69252047    -1.50650349     1.64416992
O       5.39129832     0.82765719     0.12613009    -0.69311979    -1.50652200    -1.64374646
O       2.49657981     4.76904570    12.12865406     0.69311979     1.50652200     1.64374646
O       6.44043548     0.82763470     6.25356243     0.69252047    -1.50650349    -1.64416992
O       1.44744258     4.76906832     6.00122207    -0.69252047     1.50650349     1.64416992
O       0.28660276     3.40423196     3.31032303    -1.87950719     0.54219341     0.12372564
O       7.60127537     2.19247100     8.94446153     1.87950719    -0.54219341    -0.12372564
O       4.23053506     2.19241881     2.81710823    -1.87992808    -0.54199646    -0.12388737
O       3.65734307     3.40428414     9.43767612     1.87992808     0.54199646     0.12388737
O       0.28658724     0.60588044     2.81706905    -1.87950719     0.54219341    -0.12372564
O       7.60129089     4.99082244     9.43771524     1.87950719    -0.54219341     0.12372564
O       3.65732762     0.60593263     8.94450058     1.87992808     0.54199646    -0.12388737
O       4.23055051     4.99077032     3.31028391    -1.87992808    -0.54199646     0.12388737
