# total energy = -39034.37126953 eV

CRYSTAL
PRIMVEC
        7.60600008     0.00000000     0.00000000
        0.00000000     7.60600008     0.00000000
       -3.79573973    -3.79573973     9.71340985
PRIMCOORD
46 1
Ti      2.09677145     4.74376744     6.17771163    -1.89275969     0.31857960    -1.16923094
Ti      3.97710698     6.85894902     1.23080500    -1.15399509     0.89654349     1.38945140
Ti      1.88827847     0.73683244     6.10503162    -0.39465625    -0.47263450    -1.55888511
Ti      3.68053901     2.91255698     1.23146103     0.40572280     0.55845487     1.96575642
Ti     -1.78823953     4.52611843     6.21870260     0.68331540     1.72248292    -1.46818272
Ti      0.05368202     6.41507001     1.14189301     0.87021384     2.22163656     1.06448493
Ti     -1.93176055     0.88766145     5.94718863     0.19455133    -0.65627227    -0.91492766
Ti      0.01897598     2.78083502     1.10713702    -0.94479772    -0.48771274     2.14962636
Ti      3.79020247     1.00978444     8.42323963    -1.19603624     0.92916900    -1.14510010
Ti      5.51505000     2.75955802     3.54247201    -0.64610304    -0.78477348    -0.05738113
Ti      3.82582843    -2.71860954     8.57524865    -0.87665112    -1.49473735     0.24173444
Ti      5.70686300    -1.14936299     3.67699701     0.93545175     1.75798961    -0.32521922
Ti     -0.09638053     1.03811246     8.35967364     2.54784179     0.45040962     0.53363549
Ti      1.71081100     2.79586598     3.67005601     0.63337993     0.08561211    -0.46477952
Ti      0.05548545    -2.64222355     8.65695161     0.49771356    -0.44865124    -0.49225588
Ti      2.00709898    -0.96130001     3.60385598    -1.16176702    -0.41556164     0.27981763
O       1.91255247    -1.10204655     5.57322563    -0.09409470     0.88579036     0.57309242
O       3.97134598     1.17580502     0.85764000    -0.83991441    -3.18429419    -0.54557698
O      -1.81347557     2.75305147     5.51422062    -0.06640236     0.87173414     0.92565327
O       0.03609100     4.64414601     0.59340302     0.33496704     0.30917887     0.82868357
O      -1.75534153    -0.96885555     5.61670665    -0.17132835    -0.01550016     0.62918234
O       0.05998600     0.86130498     0.84657898    -0.19704299     1.75052775    -1.00036827
O       3.63361443     2.84009943     8.84367460     0.68359822    -0.01660882     0.04858435
O       5.39940398     4.75569600     4.17788598    -0.08003770    -1.52232246    -0.25769894
O       3.41039947    -0.96271354     8.86392061     1.50977213     0.48733710     0.20479384
O       5.60687400     0.79737201     3.89414400     1.13696024     1.84515775     1.36303511
O       0.30067148     2.79971146     9.17504862    -0.99067624    -0.42777156    -1.91246463
O       2.22794100     4.58730502     4.01854002    -0.85267120     0.27497033     1.17243633
O       0.15089045    -0.74759553     9.09479064    -0.77103247     1.12671953    -2.37029728
O       1.58756498     0.93767198     4.12818301     0.20016277     0.61212667     0.29703169
O       1.90486146     1.01934144     7.94148862    -0.36284784    -0.10499206     1.11159450
O       3.58795802     2.45306999     3.26552201     1.36357710     0.96136591     0.13644464
O       1.88785042    -2.78068955     8.24182465     0.11881021    -0.46367754    -1.19180343
O       3.75828700    -0.54249601     3.28556301     1.03755390    -1.72653035    -0.86429490
O      -1.86343053     1.22785145     8.10590960    -1.95774640    -0.77187014    -0.97414173
O      -0.24671101     3.05392398     3.05078802     1.43028234    -0.56400306     0.55089891
O      -1.87699753    -2.62483854     8.13095265     0.47381335    -0.68561397     0.33031335
O       0.15160399    -1.08748603     3.09469502    -2.36593309    -0.89747037     0.86849172
O       3.83473946     4.98186847     6.52473565     1.26590599    -1.27466523     0.74146092
O       5.78262700     6.55762899     1.63788101    -0.97132714    -0.52761165     0.32754067
O       3.66873745     1.15648545     6.28916065     2.52049296    -0.41306562     0.55888424
O       5.50847598     2.96698301     1.62166601     0.51707655     0.81917408     0.00896775
O       0.06941842     4.74165745     6.49243864    -0.76574217    -0.82323437     0.47308701
O       1.86725098     6.80750903     1.61225401     1.98301778    -0.91658113    -1.04738246
O       0.00790543     0.97860542     6.36505763    -1.29316715     0.13257384     0.84592565
O       1.84298201     2.97811002     1.75379501    -1.29745036     0.07862128    -1.86061806
