# total energy = -19879.83041627 eV

CRYSTAL
PRIMVEC
        9.45609963     0.00000000     0.00000000
        0.00002977     3.81743612     0.00000000
        0.00000000     0.00000000    14.63568457
PRIMCOORD
24 1
Ti      3.42739908     2.26220906     5.42973461     0.26415189    -0.19193421     2.39407614
Ti      6.02873059     1.55522693     9.20595009    -0.26415189     0.19193421    -2.39407614
Ti      8.15528750     1.55522823     1.88804927     0.25564977     0.19111197    -2.39149244
Ti      1.30084216     2.26220796    12.74763557    -0.25564977    -0.19111197     2.39149244
Ti      3.42738432     0.35349107     1.88810794     0.26477410    -0.19199514    -2.39124638
Ti      6.02874534     3.46394506    12.74757690    -0.26477410     0.19199514     2.39124638
Ti      1.30082741     0.35348970     9.20589142    -0.25579323    -0.19146421    -2.39413836
Ti      8.15530225     3.46394643     5.42979329     0.25579323     0.19146421     2.39413836
O       2.99292585     1.34418413     7.46847779     0.81584965     0.80686801    -2.37264702
O       6.46320389     2.47325186     7.16720691    -0.81584965    -0.80686801     2.37264702
O       1.73520043     1.34419950     0.15068258    -0.81482583     0.80650497    -2.37198187
O       7.72092937     2.47323649    14.48500172     0.81482583    -0.80650497     2.37198187
O       6.46318913     0.56453380     0.15063511    -0.81494282    -0.80665666    -2.37215748
O       2.99294053     3.25290219    14.48504920     0.81494282     0.80665666     2.37215748
O       7.72091461     0.56451842     7.46852533     0.81511739    -0.80694565    -2.37252360
O       1.73521498     3.25291763     7.16715937    -0.81511739     0.80694565     2.37252360
O       0.34358010     2.32198104     3.95346351    -1.87576752     0.56981504     0.03445125
O       9.11254956     1.49545495    10.68222119     1.87576752    -0.56981504    -0.03445125
O       5.07164237     1.49541947     3.36442531    -1.87544099    -0.56961295    -0.03323435
O       4.38448736     2.32201659    11.27125912     1.87544099     0.56961295     0.03323435
O       0.34356535     0.41326298     3.36437857    -1.87568730     0.56973096    -0.03339967
O       9.11256431     3.40417301    11.27130586     1.87568730    -0.56973096     0.03339967
O       4.38447261     0.41329846    10.68226780     1.87619818     0.56976618    -0.03506472
O       5.07165712     3.40413753     3.95341684    -1.87619818    -0.56976618     0.03506472
