# total energy = -19960.36350183 eV

CRYSTAL
PRIMVEC
        7.60600008     0.00000000     0.00000000
        0.00000000     7.60600008     0.00000000
       -1.89786986    -1.89786986     4.85670466
PRIMCOORD
24 1
Ti      3.86433100     6.59891201     1.18914097    -0.73607394    -0.05102125     0.05694790
Ti      3.74271199     2.82948800     1.31307497    -0.13851438    -0.53028611    -1.21046116
Ti      0.11155099     6.78416199     1.14059103    -0.08427154     0.36276582     0.92289988
Ti     -0.01281202     2.93759299     1.19519497    -0.24261298     0.16418891     0.89927940
Ti      5.63996822     2.99858924     3.67391784     1.56244917    -1.85605461    -0.52442296
Ti      5.71970020    -0.93561379     3.52908282     1.36679201     1.21901317     1.38971366
Ti      1.88736623     2.76249723     3.66262181    -2.33994540    -1.84009808    -0.19081938
Ti      1.89253121    -1.10096777     3.63451683    -1.09477176     1.75520279    -0.16364409
O       3.85919401     4.61258202     0.80583397    -0.00031239     2.25763999    -0.34951846
O       3.81843498     1.04635699     0.76064800     0.30413565    -3.52524985     0.41834178
O      -0.02403401     4.93873401     0.97104099    -0.65504997    -1.87134573    -1.78806587
O       0.11064800     1.09126901     0.79777799    -0.79878111    -2.07984762    -0.69111999
O       5.94727722     4.79989521     3.97298580    -0.90404623     0.86489937     0.63818352
O       5.68522325     1.02465221     4.15764283    -0.57191923     0.40288224    -1.33491211
O       1.64027823     4.66871222     4.06726984     0.85772727     0.33444151     1.15105246
O       1.84782425     0.83629125     4.00926079     0.44213066     1.14027542    -0.14804160
O       3.67404722     2.87446722     3.29577280     1.57281406     0.45039008    -0.10824503
O       3.78235022    -1.19780377     3.14046780     0.66068943     0.41811167    -0.16943422
O      -0.04789377     2.82405822     3.20075982    -0.05859341    -0.04502569     0.49486632
O       0.02750722    -0.89422679     3.22348084    -0.58585744     0.23664931    -0.10717648
O       5.80128902     6.70562801     1.63230099    -2.23643738     0.31608408    -0.70353662
O       5.63643998     2.88833098     1.72761301    -0.06918533    -0.06320468     0.19507918
O       1.82241702     6.40911402     1.60645000     2.84339458     0.94917322     0.29699466
O       1.83545500     2.70069197     1.56467701     0.90623990     0.99041630     1.02603946
