# total energy = -19518.95829912 eV

CRYSTAL
PRIMVEC
        7.60600008     0.00000000     0.00000000
        0.00000000     7.60600008     0.00000000
       -1.89786986    -1.89786986     4.85670466
PRIMCOORD
23 1
Ti      3.79683502     6.60454198     1.19748599     0.83958788    -0.39837741     0.26085702
Ti      3.81760602     2.83460102     1.20824501     0.60077447     0.33281040     0.29157503
Ti      0.05240199     6.74712900     1.25675797    -1.26713370    -0.81873571    -0.67872315
Ti     -0.00922700     2.87084601     1.11540399    -0.12943864     0.87216197     0.92978761
Ti      5.65014022     2.87581324     3.63234382    -0.61656182    -0.05394588     1.06810324
Ti      5.68723020    -0.97105280     3.62241582    -0.16333093     0.08451194    -0.15295910
Ti      1.94457224     2.82781220     3.57060079     0.87292687    -0.15603388     1.20061538
Ti      1.91233424    -1.00487579     3.68733883     0.14560728     0.19894381     0.06383357
O       4.00034902     4.71332001     0.70395402    -0.58698230     0.47416508     1.06366063
O       3.88376699     0.90959097     0.83113701    -0.36106684     0.33939860    -0.52631812
O      -0.12750499     4.69906699     0.80372298     0.80067525     1.63513043     0.63280066
O      -0.14476702     0.99993000     0.72342298     0.90174226    -1.44823404     0.82010868
O       5.64016222     4.72142722     4.03653083     0.93132050     0.72437310     0.57145720
O       5.53574824     0.99303323     4.11446382     0.74697517    -0.79692041    -1.70583399
O       1.78247123     4.70356622     4.05795780    -0.29421581     0.29893071    -0.02118307
O       1.87386723     0.95827121     4.06430480    -0.38948602    -0.71516829    -0.29180823
O       3.82783825     2.90405521     3.28576384    -0.99986408    -0.14076898    -1.00425270
O       3.79759820    -1.04887879     3.29723582    -0.66339346     0.09083557    -0.83073865
O      -0.00754078    -0.96864377     3.21791881     0.69429633     0.21065107     0.26715674
O       5.73940698     6.80711601     1.69926800    -0.72166624    -0.53074994    -0.49662624
O       5.72108300     2.87220398     1.76739201     1.06486622    -0.27068276    -1.03643418
O       1.92529998     6.59415799     1.60643603    -0.06733387     0.19358151     0.26995488
O       1.95250101     2.89064602     1.65237401    -1.33829826    -0.12587714    -0.69503295
