# total energy = -39036.58841653 eV

CRYSTAL
PRIMVEC
        7.60600008     0.00000000     0.00000000
        0.00000000     7.60600008     0.00000000
       -3.79573973    -3.79573973     9.71340985
PRIMCOORD
46 1
Ti      1.93081946     4.63575644     6.15460564     0.59122411     1.78821063     0.38240134
Ti      3.63477301     6.79310202     1.30621102     2.47673971     1.09252384    -0.60251074
Ti      2.08110146     0.87309547     6.09811962     0.01587194    -1.57688104    -1.83631213
Ti      3.82143499     2.88524402     1.24496701    -0.02928205    -1.32792308    -0.35656483
Ti     -1.87256355     4.73372747     6.00285163    -0.70342298    -0.89501883     0.47894579
Ti     -0.00522600     6.74121899     1.12165098    -0.78324882    -0.49619018     1.96936008
Ti     -1.75779257     0.94818747     6.02381763    -0.03476647     0.32747099    -1.62602512
Ti     -0.03527998     2.97035102     1.17396200    -0.51211792    -0.51879225     0.23588903
Ti      3.89179244     1.04353743     8.48214563    -0.35170750    -1.05031429    -0.70329468
Ti      5.64382598     2.63930799     3.60684700     0.28392471     0.52989016     0.38710981
Ti      3.85260247    -2.77354656     8.53664564     0.00437910     0.19224223    -0.72278570
Ti      5.54875600    -1.10122299     3.66097300     0.35441230     0.28190691    -1.44022968
Ti      0.06399843     1.06828843     8.28927862     0.69826483     0.55231430     0.79463752
Ti      1.90773299     2.86259899     3.36765899    -0.62360948    -1.91244175     2.38554393
Ti      0.00277945    -2.75695458     8.55920564    -0.13344956    -0.67112477     0.71340194
Ti      1.75343501    -1.00590298     3.83150502    -0.24791846     0.17495001     1.24669856
O       2.02820945    -1.06300253     5.97115163    -0.60102721     0.37594504    -2.34692440
O       3.82166598     1.01690902     0.96484602    -0.49228905     0.69883715    -1.11676421
O      -1.83203857     2.76409042     5.52297565     0.28490559     1.11599185     0.17900335
O      -0.06793101     4.78822500     0.73645201    -0.05889577     0.38498839    -0.39785214
O      -1.97754353    -1.02314955     5.73132861     0.75737477     0.20806274    -0.54560269
O      -0.04602202     1.01347201     0.86059302     0.04864915    -0.32461604    -0.37658293
O       3.83139442     2.92426746     8.94113963    -0.08049716    -0.99872894    -0.19163904
O       5.31468498     4.69050898     4.03448799     1.00171322     0.12951114     0.75756143
O       3.93958445    -0.92446657     8.85829064    -0.14826735     0.74091996     0.07732236
O       5.66211498     0.85615503     3.96592001     0.09880213    -0.72507399     0.26938178
O       0.13354344     2.89334747     9.07913165    -0.28689254    -1.45573652    -0.87719722
O       1.83184299     4.51368498     4.11992001    -0.09345732     0.88591352     0.66818317
O       0.02420742    -0.79394553     9.04448864     0.00218184     0.30487253    -0.95671478
O       1.75957198     1.04804798     4.15063102     0.18875324    -0.41680349    -0.06773651
O       1.91262047     0.73204746     7.93394763     1.34384002     1.00073389     2.15131069
O       3.78543199     2.59045901     3.21357702    -0.75921748     0.38459038     0.38451325
O       1.94342843    -2.88632153     8.12430465     0.11955531     0.02980038     0.19911530
O       3.50273201    -0.89853699     3.35987902     2.08978957    -0.21416397    -0.14337248
O      -1.80725255     0.94341546     7.84495864    -0.32791630     0.08161790     2.16496737
O       0.00114101     2.63551501     3.02045399    -0.86888047     0.62567999     0.69245516
O      -1.87807954    -2.96304054     8.20725260     0.83217153     0.59238830    -0.48468809
O      -0.13356503    -1.12377499     3.27892099     0.41101542     0.18309578    -0.36164533
O       3.89265844     4.58782446     6.50052563    -0.65534616    -0.30906908     0.31190733
O       5.52496901     6.63171100     1.62265002     1.09352863    -0.67686836     1.13167893
O       3.91667144     1.14151746     6.35720363    -0.76991970     0.13085172     0.73231756
O       5.55577400     3.11090901     1.74901802     1.84244421     0.62914352    -1.73919870
O       0.05671447     4.61219143     6.60049965    -0.74683504     0.03585739    -0.67086971
O       1.95400700     6.40418600     1.54405799    -3.97988714    -0.13043725     0.20257189
O       0.19418847     1.32369244     6.32793463    -1.15730770    -0.46987185     0.68911967
O       1.91332697     3.02760000     1.56740201    -0.09338147     0.69174528    -1.64088662
