# total energy = -78964.57557672 eV

CRYSTAL
PRIMVEC
       10.35150501     0.00002646     0.00000000
        0.00002858    11.01713167     0.00000000
        0.00000000     0.00000000     9.26345890
PRIMCOORD
94 1
Ti      7.15907455     8.69246171     3.29980386     0.03803511    -0.07255733    -0.15251635
Ti      7.03208193     3.28375551     3.42232433     0.05439222     0.10356150     0.02519194
Ti      1.85048462     8.75634635     3.45463269    -0.06592954     0.09390675     0.07685930
Ti      1.84311504     3.37133529     3.50670812     0.06201272    -0.01324967    -0.11083001
Ti      8.37906650     7.72169195     5.78633611     0.04221239    -0.16521247    -0.04064299
Ti      8.50478742     2.23613186     5.82498822     0.05494758    -0.04758599     0.00577419
Ti      3.32060927     7.72455036     5.81457039     0.13094505    -0.22285611    -0.00723843
Ti      3.26168819     2.19197630     5.77642219     0.02561103     0.04186117     0.14241577
Ti      9.73633012     7.72176550     1.15476088    -0.04409058    -0.16464425    -0.04110013
Ti      9.61019085     2.23626073     1.19318926    -0.05490927    -0.04786676     0.00601227
Ti      4.44302973     7.72444358     1.18281595    -0.12982790    -0.22194028    -0.00743563
Ti      4.50180496     2.19199272     1.14470626    -0.02432444     0.04115618     0.14298913
Ti      5.91338204     8.75621047     8.08628196     0.06408348     0.09511080     0.07679631
Ti      5.92064977     3.37135649     8.13855939    -0.06241947    -0.01223254    -0.11070789
Ti      0.60447358     8.69255976     7.93152668    -0.03793073    -0.07398841    -0.15245413
Ti      0.73174810     3.28375434     8.05397214    -0.05510750     0.10357667     0.02577120
Ti      7.04616484     6.02426734     1.18151247     0.00030185     0.13902551    -0.00635680
Ti      7.06151941     0.52998642     1.18671243    -0.15026098     0.04537767     0.03632327
Ti      1.89531241     6.02218513     1.20552608    -0.01662990     0.01780001     0.03889823
Ti      1.89289275     0.80570571     1.31273446     0.20196948     0.27301809     0.20075824
Ti      8.47057488    10.49002244     8.07721723    -0.01446529     0.02475639     0.04533962
Ti      8.51415378     4.97554010     8.05586501    -0.00223917    -0.04394094     0.04332953
Ti      3.46409894    10.47905636     7.92611173     0.06850861    -0.05270892     0.10214457
Ti      3.28867962     4.97755240     8.06186752    -0.03425842    -0.11337669     0.05728343
Ti      5.86840956     6.02208444     5.83727490     0.01539397     0.01868704     0.03821226
Ti      5.87037243     0.80581335     5.94448436    -0.20106728     0.27282011     0.20225719
Ti      0.71784960     6.02414528     5.81324379    -0.00191522     0.13992951    -0.00604647
Ti      0.70208629     0.52985778     5.81849576     0.15056926     0.04637449     0.03572626
Ti      9.64434624    10.48999644     3.44552611     0.01687698     0.02513100     0.04481974
Ti      9.60096037     4.97548977     3.42422311     0.00235719    -0.04410009     0.04295415
Ti      4.29938889    10.47915659     3.29421109    -0.06247115    -0.05394074     0.10229189
Ti      4.47492478     4.97756731     3.43012910     0.03415146    -0.11343686     0.05690830
O       6.77002001     7.50104647     4.75541953    -0.03397740    -0.04561164    -0.12673846
O       6.83707803     1.86250305     4.68442803     0.00683065     0.10603542    -0.01838339
O       1.64526591     7.43954297     4.75191982    -0.03888358    -0.01535052    -0.03687683
O       1.64905847     1.91219252     4.72438285     0.03890055    -0.01538317    -0.01741357
O       8.62284670     9.14127431     4.56971511    -0.00571659    -0.05976094    -0.05137555
O       8.70511186     3.57550219     4.52803535     0.02771470     0.02430902    -0.01453111
O       3.54875111     9.11835028     4.55845041    -0.16647051    -0.01991269    -0.05147093
O       3.56424055     3.55270775     4.53463654    -0.02559791     0.02163353     0.00837049
O       6.11849133     7.43957140     0.12019611     0.03914815    -0.01550247    -0.03728667
O       6.11459186     1.91223838     0.09273758    -0.03804180    -0.01596656    -0.01846927
O       0.99363835     7.50107469     0.12368768     0.03415532    -0.04606776    -0.12684876
O       0.92656384     1.86256277     0.05266929    -0.00755673     0.10608504    -0.01876083
O       9.49226673     9.14126179     9.20151805     0.00572122    -0.05980362    -0.05191239
O       9.41006337     3.57552673     9.15976855    -0.02742211     0.02465380    -0.01524125
O       4.21497032     9.11832275     9.19020350     0.16537316    -0.02058555    -0.05118965
O       4.19945316     3.55267037     9.16638163     0.02409973     0.02251670     0.00810643
O       8.71624460     6.33448611     0.07639926     0.04546920     0.06078142    -0.03287285
O       8.68798917     0.82921508     0.09734402    -0.00269657    -0.00542554    -0.00837151
O       3.55040911     6.34244553     0.10652588     0.01649749     0.03925253    -0.02176311
O       3.40948606     0.71407043     0.08628721    -0.16747735    -0.09083634    -0.04826785
O       6.82256708    10.18652021     9.17419665     0.04878387    -0.05719113     0.02929182
O       6.81794775     4.67494380     9.18196010     0.02233081    -0.00768015     0.04343598
O       1.64121503     4.68384644     9.16684442     0.04191928    -0.00514452     0.00591020
O       9.39894247     6.33448435     4.70809157    -0.04475907     0.06038572    -0.03269056
O       9.42713540     0.82921605     4.72904602     0.00268578    -0.00565900    -0.00743075
O       4.21333732     6.34243514     4.73829262    -0.01779950     0.03943817    -0.02143812
O       4.35403611     0.71416989     4.71797340     0.16766298    -0.09096129    -0.04743790
O       6.12258516     4.68389011     4.53508234    -0.04264742    -0.00518720     0.00650232
O       0.94115308    10.18653748     4.54243142    -0.04900859    -0.05735413     0.02990271
O       0.94581153     4.67492083     4.55017397    -0.02247556    -0.00742741     0.04394428
O       5.40361499     8.95623216     2.64370568    -0.00135240     0.08898514     0.03838324
O       5.36259799     3.34878244     2.48049736     0.00241427     0.04010074    -0.07671480
O       0.16358451     8.84601152     2.53531960    -0.01097502    -0.04574663    -0.05252663
O       0.20558376     3.34063655     2.48774103    -0.01325841     0.05939945     0.02081592
O      10.15071493     7.61629108     6.73036153    -0.10137786     0.07109617     0.18986344
O      10.16480758     2.15649439     6.76332370     0.04374991    -0.01491163    -0.00094360
O       4.96626160     7.64785647     6.79585018     0.00961310    -0.00708673     0.04189974
O       4.97984805     2.16180955     6.81775926     0.03355239    -0.14836556    -0.21848729
O       7.96442268     7.61635952     2.09873990     0.10347151     0.07012249     0.18844985
O       7.95033360     2.15642525     2.13166081    -0.04362315    -0.01504636    -0.00084024
O       2.79747574     7.64777602     2.16412283    -0.01089454    -0.00673809     0.04240753
O       2.78369758     2.16159838     2.18599404    -0.03386298    -0.14672391    -0.21664200
O       7.60009104     8.84601106     7.16702094     0.01199009    -0.04551857    -0.05318920
O       7.55809185     3.34071563     7.11948084     0.01344790     0.05909529     0.02045031
O       2.35986147     8.95626063     7.27551681     0.00202217     0.08784923     0.03685472
O       2.40111656     3.34887599     7.11216945    -0.00307890     0.03977344    -0.07738972
O       5.37752305     6.13327358     2.15028664     0.01184071     0.08651971     0.05231426
O       5.34252622     0.59703165     2.12574943     0.00633854    -0.11420639    -0.03285794
O       0.20214016     6.10483053     2.12561001     0.09011823    -0.04531082    -0.02683538
O       0.15664576     0.56786328     2.11140130     0.05321646     0.00134417     0.04667840
O      10.24564847    10.41850261     7.21254847    -0.01121670     0.00629303    -0.04558233
O      10.16475830     4.90365185     7.12095447     0.01706750    -0.04768164    -0.02938129
O       5.05652986    10.35809615     7.02867963     0.09901630     0.13609523    -0.02890872
O       4.98276094     4.90067104     7.13522609    -0.00589014    -0.00457888     0.00696512
O       7.56157401     6.10489126     6.75738026    -0.08968757    -0.04523883    -0.02691997
O       7.60680711     0.56796105     6.74311777    -0.05314267     0.00105955     0.04688588
O       2.38625449     6.13328035     6.78209068    -0.01287712     0.08673568     0.05151824
O       2.42107464     0.59708260     6.75756903    -0.00747189    -0.11369680    -0.03417486
O       7.86941865    10.41844816     2.58077104     0.01145016     0.00625884    -0.04476292
O       7.95050024     4.90358613     2.48912783    -0.01645352    -0.04767547    -0.02871409
O       2.70712231    10.35805664     2.39685776    -0.10039545     0.13548330    -0.02832997
O       2.78098885     4.90062306     2.50339757     0.00496609    -0.00442050     0.00729319
