# total energy = -19959.85465130 eV

CRYSTAL
PRIMVEC
        7.60600008     0.00000000     0.00000000
        0.00000000     7.60600008     0.00000000
       -1.89786986    -1.89786986     4.85670466
PRIMCOORD
24 1
Ti      3.93511301     6.75171199     1.08923702    -2.64876534     1.51257618     1.38859754
Ti      3.84665399     2.98565800     1.23294600     0.62481558    -1.33878111    -0.64793803
Ti     -0.13245100     6.58555801     1.23167598     4.12056278     0.24670078    -0.59005091
Ti      0.06697902     2.75023000     1.26543198    -1.28582768    -0.78799096     0.26301418
Ti      5.62546125     2.71892324     3.71144280     1.09373406    -0.33960069    -0.36767097
Ti      5.72353923    -1.02529579     3.69569380    -0.72032130     0.59246338     0.39555665
Ti      1.94546825     2.92692525     3.62546880    -0.95450029    -0.32143404    -0.51875162
Ti      1.88557925    -0.76929979     3.60631179     0.54946655    -0.86509940    -1.97300333
O       3.86181000     4.88584799     0.63979202     0.21087785    -1.19387008     1.99492611
O       3.84999299     1.02834301     0.58070499     0.19682908    -0.59721426     2.60887466
O      -0.07055801     4.56267801     0.80675898    -0.41291932     1.65330299     0.81428179
O      -0.18948700     0.90448801     0.81152898     0.39726310    -0.09849129    -0.37143456
O       5.65020420     4.71017125     4.09683582    -0.59192036    -0.81236734    -0.11989470
O       5.71265024     0.83838425     4.06300483    -0.21334199     0.03956466     0.66295611
O       2.05127724     4.85450122     4.04226679    -0.00708725    -1.38232816    -1.80967009
O       1.89602621     0.97697524     4.21196981    -0.17971015     2.08446815    -1.68253465
O       3.76890722     2.53918824     3.07923580    -1.05776663     0.85055672     2.07489593
O       3.69320121    -0.75731276     3.06695582     1.72024169    -0.62856631     0.18505779
O      -0.10788675     2.61019721     3.34611682     2.00118084     1.09238809    -0.86958186
O      -0.03664076    -0.98892777     3.29859580     0.05429889    -0.29474495    -0.71115274
O       5.76792598     6.79501298     1.67410203    -2.25753791    -0.65220144     0.12038012
O       5.65276399     2.68642001     1.79878301     0.14674628     1.08163316    -1.68735161
O       1.87303298     6.82731100     1.44045000    -0.69162264    -0.61665747     0.61574395
O       1.89066501     2.70663098     1.61765898    -0.09469582     0.77569363     0.22474998
