# total energy = -39030.32200562 eV

CRYSTAL
PRIMVEC
        5.93200024     0.00000000     0.00000000
        0.00000000     9.29399984     0.00000000
        0.00000000     0.00000000     9.29399984
PRIMCOORD
46 1
Ti      4.44665802     6.85990202     6.91978298     2.59233244     1.47845249    -1.63878422
Ti      4.46726698     6.96686298     2.23871298    -0.73891887    -1.40884473     1.54169059
Ti      4.54831799     2.43315498     7.11624199    -0.24876204    -0.81947464    -4.27003161
Ti      4.34642698     2.63081798     2.10737601     0.25317894    -0.99826537     2.04330452
Ti      1.47296398     7.06081602     7.14077798    -1.14451748    -0.32526318    -1.64185644
Ti      1.52830502     7.05569998     2.15122199     0.47686037    -1.67359158     1.10758434
Ti      1.50268601     2.18017799     7.03010601    -0.65636714     1.48482857    -0.60750922
Ti      1.32759401     2.10278301     2.72970602     1.66699386     0.07298619    -0.49924491
Ti      3.00030203     4.83316802     4.63604801    -0.80117995    -0.96035727     2.18841327
Ti      3.01482201     4.77119703     8.95131000    -1.73018055     0.60176306     1.00345488
Ti      2.88628602     9.27021099     4.75181702     1.13838669     1.73352890    -1.36657758
Ti      2.92176699     9.29335202     0.09352800    -0.90889867     2.01108293    -0.18354341
Ti      0.05205601     4.58912502     4.34965999     0.85800007     0.33535245     2.32159980
Ti      5.93092702     4.56201601     9.11129298     1.31532441     0.54603104     2.22672529
Ti      5.84777703     9.07657101     4.72883999    -1.08879009     0.05575311     1.00400587
Ti      5.74276699     9.24576703     0.13009701    -0.48010201     0.48850515    -1.51755538
O       4.66147800     5.61905000     5.29593601    -1.62403174     1.10613758     1.35894731
O       4.53455901     5.44002500     0.83876002    -1.75529484    -0.08644592     0.34411966
O       4.50004798     0.68125898     5.89626400    -0.07948234    -0.05617503    -2.16222426
O       4.41372102     1.05609502     1.02882900     1.16883627    -1.24601953    -0.50451079
O       1.30699499     5.70220798     5.47114300     1.64183998    -1.13294700    -0.37492483
O       1.64444402     5.72541198     0.65750702     0.70421590    -1.30720692    -0.18260419
O       1.31328897     1.02207898     5.41808700     0.44041291    -0.58392834     0.22077377
O       1.89322702     1.24699799     1.13663802    -1.21746254    -1.37860494     0.08242574
O       4.40026700     8.26802998     8.41182601     0.61754913     1.13205200     0.77263787
O       4.39124702     8.45590801     3.56918598     1.08388596    -0.33525578     1.15680222
O       4.46848102     3.48848201     8.56979500    -0.78376689     1.17263919     1.78159157
O       4.44564200     3.55194301     3.95990898     0.12667753     0.50769253    -2.52191915
O       1.34207098     8.46313001     8.58506102     0.94134421    -0.60265112    -0.70257965
O       1.49632202     8.49044900     3.56530098    -0.89325685     0.43306161     0.43857405
O       1.39226402     3.88761802     8.12900501     2.05365039    -1.16430033     1.27623181
O       1.61471500     3.44637299     4.12201899    -0.59412328     0.88212577    -2.14388483
O       3.02926501     6.02697798     7.52709198    -1.30938311    -2.31267293     2.46213455
O       2.89635902     6.08113499     3.15585500     0.60688881    -0.15333036    -0.38386173
O       2.97067799     1.34054700     8.05745702    -0.61676700     1.24691479    -2.01856998
O       3.15757499     1.48471901     3.43949702    -0.52830919     0.11209114    -0.86186444
O       5.92670699     6.06050998     7.99831702    -0.78195812     0.61123707    -1.32601147
O       0.18131999     5.94464800     3.08593100    -0.72892987     0.45495250    -0.86642018
O       5.86668199     1.36963100     8.03931899     1.58923905     0.21915757    -0.22076528
O       2.83033701     7.80928601     5.97125001     0.60001111     0.53044578     0.54555410
O       3.06658698     7.85829597     1.32702901    -0.03499273    -0.35021138     0.46355850
O       3.09874101     3.67837298     6.20252698     0.48552242    -2.65803906     1.46100652
O       0.05905999     7.75029899     6.12778598    -0.11891562     1.68023968    -1.02157217
O       5.88508799     7.63288800     1.34340001     0.24136883     2.56247343    -1.20313403
O       0.10209798     3.33685802     6.16725001    -1.37163879    -2.05032621     1.14819262
O       0.16744999     3.18122699     1.47251100    -0.36648929     0.14440761     1.27062063
