# total energy = -19071.50749633 eV

CRYSTAL
PRIMVEC
        5.17600016     0.00000000     0.00000000
        0.00000000     5.50899976     0.00000000
        0.00000000     0.00000000     9.26300011
PRIMCOORD
22 1
Ti      1.56124799     3.16871999     3.67018502     0.18370462    -0.78364117    -0.99507668
Ti      4.50104400     3.10956998     5.89193602    -0.64322957    -0.27310268    -1.18407752
Ti      4.33127700     2.18148802     1.36003998     0.09414175    -0.46514590     0.90146150
Ti      1.35165798     2.89697599     8.19976098    -0.31116608    -2.77000293    -0.80684692
Ti      1.70860200     0.56032198     1.52465099    -0.30676666     0.84770768    -0.17148853
Ti      3.04735202     5.30473501     8.13809601     0.33984649     0.03362310    -0.64164551
Ti      1.41759801     0.17460600     5.64165503     0.17222978     0.96802224    -0.08706710
Ti      4.03755601     4.90281299     3.57640603    -0.68486577    -0.15069061    -2.55140380
O       3.18298698     3.23834802     4.57195798     0.11512170    -0.77096408     0.51347443
O       0.63220801     1.50236898     0.16230501    -0.85544542     1.76750115    -0.53671773
O       4.90222200     3.61183301     7.64467500    -0.68121789     0.40001803     0.66232902
O       3.08982702     1.16781402     0.26605699     0.46584190    -0.54609069    -1.17373654
O       1.97199701     4.16971199     9.22869302     0.85332837     1.38358749     1.02796805
O       2.68639202     0.19221300     4.39079002    -0.65689808     2.40648352     2.23779415
O       0.25911402     4.39055099     4.65311398     2.28127897     1.47842523     3.71360482
O       4.93293598     3.48672001     2.71213601    -0.43476728    -2.34498245    -3.60363022
O       0.67581100     1.92801598     4.98762301    -0.44896466    -0.47377041     0.44743382
O       2.43631200     2.22805599     2.28193502    -0.34778117    -2.09885322    -0.09694117
O       2.41276399     4.26747198     6.66313698    -0.22279029    -1.14190524     0.65730020
O       4.80727702     0.63148399     2.16732401     0.88184269    -0.84930974     1.72999106
O       2.02990901     1.04484302     7.18990002     0.02787231     2.02711093     0.66474046
O       2.18688198     4.56471100     2.48795399     0.17868402     1.35598026    -0.70746578
