# total energy = -4981.86146777 eV

CRYSTAL
PRIMVEC
        4.56377785     0.00000000     0.00000000
       -0.00001016     4.56377785     0.00000000
       -2.28192472    -2.28192980     5.82439554
PRIMCOORD
6 1
Ti     -0.00020098     3.42300625     1.45609873    -0.00166608     0.00166608     0.00000000
Ti      2.28204382    -1.14115832     4.36829643     0.00166608    -0.00166608     0.00000000
O       0.00004559     1.14093671     0.94874638    -0.00043889    -0.00262381    -1.31918159
O       2.28179713     1.14091109     4.87564885     0.00043889     0.00262381     1.31918159
O      -0.00002578    -1.14091690     3.86094408    -0.00262381    -0.00043889    -1.31918159
O       2.28186843     3.42276464     1.96345114     0.00262381     0.00043889     1.31918159
