# total energy = -19943.06884216 eV

CRYSTAL
PRIMVEC
        4.71581961     0.00000000     0.00000000
        0.50067993     4.99402283     0.00000000
        0.00000000     0.00000000     8.45087470
PRIMCOORD
24 1
Ti      2.00596031     2.95945333     3.13521431     1.29508365     0.49391501    -0.50026513
Ti      3.21053938     2.03456954     5.31566068    -1.29508365    -0.49391501     0.50026513
Ti      4.27106756     2.03457123     1.09018942    -1.78630647    -0.95384595     1.84376010
Ti      0.94543214     2.95945188     7.36068571     1.78630647     0.95384595    -1.84376010
Ti      1.75562044     0.46244196     1.09022333     1.29512968     0.49326607     0.50073924
Ti      3.46087926     4.53158110     7.36065181    -1.29512968    -0.49326607    -0.50073924
Ti      0.69509221     0.46244012     5.31562682     1.78627407     0.95434911     1.84366574
Ti      4.52140744     4.53158290     3.13524822    -1.78627407    -0.95434911    -1.84366574
O       1.66888466     1.75848035     4.31241678    -2.24831793    -1.77006197    -0.47466876
O       3.54761504     3.23554257     4.13845821     2.24831793     1.77006197     0.47466876
O       1.04165066     1.75850054     0.08700650     2.10579006    -1.84532205    -0.26735832
O       4.17484908     3.23552242     8.36386830    -2.10579006     1.84532205     0.26735832
O       3.29727516     0.73853101     0.08697910     2.24851077     1.76999564    -0.47469987
O       1.91922453     4.25549191     8.36389570    -2.24851077    -1.76999564     0.47469987
O       3.92450921     0.73851086     4.31244423    -2.10506038     1.84474021    -0.26715572
O       1.29199044     4.25551207     4.13843081     2.10506038    -1.84474021     0.26715572
O       0.47587853     3.03764790     2.28279214    -1.08989669    -0.60924343    -1.57725308
O       4.74062111     1.95637503     6.16808285     1.08989669     0.60924343     1.57725308
O       2.72538924     1.95632852     1.94267222    -0.15650979    -1.54835618    -0.69486197
O       2.49111045     3.03769436     6.50820267     0.15650979     1.54835618     0.69486197
O       0.22553866     0.54063633     1.94264521    -1.08947477    -0.60922286     1.57879497
O       4.99096099     4.45338654     6.50822964     1.08947477     0.60922286    -1.57879497
O       2.24077058     0.54068284     6.16810981     0.15699187     1.54795534    -0.69599917
O       2.97572912     4.45334008     2.28276518    -0.15699187    -1.54795534     0.69599917
