# total energy = -19068.86066396 eV

CRYSTAL
PRIMVEC
        5.93400000     0.00000000     0.00000000
        0.00000000     9.29699974     0.00000000
        0.00000000     0.00000000     4.64899994
PRIMCOORD
22 1
Ti      4.26416500     7.21231602     2.28953702     3.10299331     0.37062157     0.26390687
Ti      4.38088298     2.29540501     2.13213700     0.20747679    -1.80117079     1.33940100
Ti      1.54262000     7.07542702     2.62332298    -4.11357401     1.53961648     1.11950167
Ti      1.63134800     2.31264402     2.09611400    -0.91667035    -0.12185337     0.19782306
Ti      3.09526098     4.70569600     4.61928199     2.10614976     0.79095801     0.58981308
Ti      2.80814300     0.15362502     0.46706602     1.38663373     2.33897969    -2.59736280
Ti      0.07448498     4.49590399     4.24870201     0.00049777    -0.05342214     0.42744452
Ti      5.85708499     8.82866798     0.05104698    -2.20134001     0.36579664    -0.55453702
O       4.34167698     5.97866198     0.97502602    -0.96047297    -2.50387437    -0.44407210
O       4.67739602     0.41863202     1.42724798    -1.60611038     1.27008481    -0.80984483
O       0.99763898     0.65682502     1.03318799     3.83669978     3.97913432     2.23658007
O       4.24519399     8.49039402     3.81633700     0.01937507    -0.63717436     0.23176807
O       4.29319302     4.22421899     3.32488300     1.37196481    -1.77234691     0.28921913
O       1.53389699     8.69142798     3.85862700     0.97312640    -1.40502458    -2.74054502
O       1.84593302     3.80397902     3.66633002    -3.36117176    -0.16415986    -1.42633492
O       2.94021802     6.28597500     3.31784002     0.75934269    -1.44638748     1.10023047
O       3.26286401     1.29395802     3.38680700    -0.74515894     2.54540002    -1.70608827
O       0.04841803     6.48864602     3.58397099    -0.01383614    -1.80131991    -1.21309037
O       2.73248902     7.98379300     1.53582499     0.37543674    -0.30607298    -0.43880005
O       3.06752902     2.51933198     0.81613901    -0.12058915     1.34739148     1.19896061
O       0.26426101     7.60690498     1.18196501    -0.23850513    -2.60638249     3.26667468
O       0.10290799     3.28659702     1.31204202     0.13773250     0.07120699    -0.33064810
