# total energy = -4979.24464903 eV

CRYSTAL
PRIMVEC
        5.06294106     0.00000000     0.00000000
       -0.00000766     3.03776463     0.00000000
       -2.53149904    -1.51893773     5.51376119
PRIMCOORD
6 1
Ti     -0.00021702     2.27843145     1.37843993    -0.00719703    -0.00824013    12.79258483
Ti      2.53165120    -0.75960466     4.13532058     0.00719703     0.00824013   -12.79258483
O       0.00005362     0.75943140     0.89814653     0.00491338     0.00864174    -6.68859417
O       2.53138045     0.75939533     4.61561404    -0.00491338    -0.00864174     6.68859417
O      -0.00002086    -0.75944151     3.65502712    -0.00230628    -0.00013755    -2.23074649
O       2.53145487     2.27826819     1.85873339     0.00230628     0.00013755     2.23074649
