# total energy = -19925.96285869 eV

CRYSTAL
PRIMVEC
        4.90726593     0.00000000     0.00000000
        2.23703971     4.71947531     0.00000000
        0.00000000     0.00000000     9.02562176
PRIMCOORD
24 1
Ti      3.10431549     2.79675667     3.34844128     5.09798961    -4.63141726     1.31182488
Ti      4.03998999     1.92271858     5.67718053    -5.09798961     4.63141726    -1.31182488
Ti      5.14357259     1.92272017     1.16433358   -10.64521436     2.80619585     2.58697965
Ti      2.00073299     2.79675526     7.86128838    10.64521436    -2.80619585    -2.58697965
Ti      1.98579575     0.43701909     1.16436975     5.09817062    -4.63069684    -1.31194290
Ti      5.15850976     4.28245630     7.86125221    -5.09817062     4.63069684     1.31194290
Ti      0.88221312     0.43701735     5.67714436    10.64615615    -2.80517718     2.58743500
Ti      6.26209244     4.28245803     3.34847750   -10.64615615     2.80517718    -2.58743500
O       2.34088031     1.66180747     4.60570570    -1.64328237    -0.03067970    -1.38882997
O       4.80342517     3.05766778     4.41991616     1.64328237     0.03067970     1.38882997
O       1.68818972     1.66182653     0.09292385     2.28061049     0.00867645    -2.27804453
O       5.45611582     3.05764880     8.93269777    -2.28061049    -0.00867645     2.27804453
O       3.68490541     0.69793011     0.09289453     1.64370660     0.03120112    -1.38869267
O       3.45940008     4.02154519     8.93272704    -1.64370660    -0.03120112     1.38869267
O       4.33759605     0.69791108     4.60573498    -2.27951854    -0.00946783    -2.27775168
O       2.80670939     4.02156423     4.41988684     2.27951854     0.00946783     2.27775168
O       1.53898665     2.87065245     2.43804561     0.10741919    -3.99818671    -3.51001117
O       5.60531878     1.84882281     6.58757625    -0.10741919     3.99818671     3.51001117
O       3.50825944     1.84877889     2.07479400     2.66846951    -3.26489213    -4.58656615
O       3.63604604     2.87069636     6.95082766    -2.66846951     3.26489213     4.58656615
O       0.42046688     0.51091472     2.07476517     0.10735002    -3.99794040     3.51097585
O       6.72383855     4.20856054     6.95085650    -0.10735002     3.99794040    -3.51097585
O       2.51752627     0.51095863     6.58760498    -2.66810853     3.26477155    -4.58676258
O       4.62677921     4.20851662     2.43801678     2.66810853    -3.26477155     4.58676258
