# total energy = -19942.73919391 eV

CRYSTAL
PRIMVEC
        5.87631556     0.00000000     0.00000000
        0.31254573     6.24636229     0.00000000
        0.00000000     0.00000000    10.52060140
PRIMCOORD
24 1
Ti      2.31509598     3.70158836     3.90306808     0.04405587    -1.00572671     0.66557658
Ti      3.87376506     2.54477370     6.61753344    -0.04405587     1.00572671    -0.66557658
Ti      5.19527398     2.54477584     1.35719064     0.01143781     0.46310984    -0.48592299
Ti      0.99358713     3.70158646     9.16341100    -0.01143781    -0.46310984     0.48592299
Ti      2.15882325     0.57840745     1.35723280     0.04405587    -1.00572671    -0.66557658
Ti      4.03003780     5.66795479     9.16336884    -0.04405587     1.00572671     0.66557658
Ti      0.83731438     0.57840513     6.61749122    -0.01143781    -0.46310984    -0.48592299
Ti      5.35154673     5.66795711     3.90311030     0.01143781     0.46310984     0.48592299
O       1.96994355     2.19945026     5.36858237     1.34333685     1.32099473    -0.11979725
O       4.21891749     4.04691180     5.15201915    -1.34333685    -1.32099473     0.11979725
O       1.18835505     2.19947546     0.10831548    -1.11931089     0.92237846     0.21206312
O       5.00050606     4.04688666    10.41228574     1.11931089    -0.92237846    -0.21206312
O       4.06264475     0.92373071     0.10828137    -1.34333685    -1.32099473    -0.11979725
O       2.12621629     5.32263135    10.41231985     1.34333685     1.32099473     0.11979725
O       4.84423331     0.92370557     5.36861654     1.11931089    -0.92237846     0.21206312
O       1.34462767     5.32265662     5.15198498    -1.11931089     0.92237846    -0.21206312
O       0.40360815     3.79939150     2.84187695     0.39034991     0.05654501     0.50569144
O       5.78525295     2.44697056     7.67872463    -0.39034991    -0.05654501    -0.50569144
O       3.27410426     2.44691236     2.41845726     0.49220549     0.53934282    -0.09853859
O       2.91475685     3.79944970     8.10214408    -0.49220549    -0.53934282     0.09853859
O       0.24733541     0.67621041     2.41842369     0.39034991     0.05654501    -0.50569144
O       5.94152569     5.57015165     8.10217765    -0.39034991    -0.05654501     0.50569144
O       2.75848410     0.67626861     7.67875814    -0.49220549    -0.53934282    -0.09853859
O       3.43037700     5.57009345     2.84184332     0.49220549     0.53934282     0.09853859
