# total energy = -19517.19379410 eV

CRYSTAL
PRIMVEC
        5.17600016     0.00000000     0.00000000
        0.00000000     5.50899976     0.00000000
        0.00000000     0.00000000     9.26300011
PRIMCOORD
23 1
Ti      1.85744803     3.24874302     3.31399502    -0.39183112    -0.00565052     2.49926849
Ti      3.38784498     2.19990101     5.83258900    -0.59693864     0.20641467    -1.98087091
Ti      4.41229399     2.08203000     1.45978598     0.82503054    -1.79841945    -0.97438624
Ti      0.87690200     3.33568298     7.83253499     0.87668248     0.95998240     2.67352122
Ti      1.82977999     0.50060200     1.32352300    -0.08510380    -0.11706828    -2.36940125
Ti      3.32347502     5.14114299     7.85860099    -0.95035079     1.47487917     1.78659494
Ti      0.72095098     0.62724200     5.80967298    -0.27767693    -0.78520980    -2.95501393
Ti      4.37399801     4.86665399     3.41721602     0.72601501     0.02714160     2.53771293
O       1.82469698     1.92196902     4.74173402    -1.64388555    -0.21210683     0.35233794
O       3.38404999     3.63067702     4.56119298     0.61786229     0.06267581     0.17152658
O       0.64840099     2.36885497     0.23754799     0.00315294    -0.10674530    -0.47641839
O       3.50596100     0.97807201     0.12735402    -0.51736965    -0.56080743    -0.39572018
O       1.64582200     4.80376302     9.07212402     0.62999661     0.49858388     0.40880813
O       4.27190898     0.73526401     4.78238902    -0.90852355     1.47118269     0.51551743
O       0.84776000     4.74042299     4.41622800     0.94345534    -0.72072368     0.70031862
O       0.04690199     3.21816102     2.71884699    -0.01184148     0.64810336    -0.41980602
O       5.16428899     2.11065997     6.84995597    -1.45927436    -0.58158144    -0.83198487
O       2.74659000     1.79546798     2.40875399    -0.17656929     1.26226865    -0.65115397
O       2.58872299     3.52279799     7.17389299     0.84786529    -1.62782566    -0.33189303
O       0.13070900     0.59131599     2.31672398     0.34756108     0.68134156    -2.00204550
O       5.08675701     4.83596202     7.13583398    -0.79808743    -0.27009783     0.53441068
O       2.39593599     0.57899400     6.61250599     1.45288980     0.22686240     1.56073579
O       2.65338501     4.76404498     2.40058201     0.54694069    -0.73319970    -0.35205846
