# total energy = -19939.30338291 eV

CRYSTAL
PRIMVEC
        5.14599779     0.00000000     0.00000000
        2.34586867     4.94907141     0.00000000
        0.00000000     0.00000000     9.46470606
PRIMCOORD
24 1
Ti      3.25533624     2.93281511     3.51133842     3.54833862    -4.22250758     1.22669383
Ti      4.23653005     2.01625624     5.95336769    -3.54833862     4.22250758    -1.22669383
Ti      5.39380044     2.01625791     1.22097683    -7.49897122     1.30504411     1.83077448
Ti      2.09806594     2.93281362     8.24372944     7.49897122    -1.30504411    -1.83077448
Ti      2.08240203     0.45827948     1.22101476     3.54802958    -4.22293695    -1.22307140
Ti      5.40946429     4.49079201     8.24369150    -3.54802958     4.22293695     1.22307140
Ti      0.92513160     0.45827766     5.95332976     7.49886915    -1.30663665     1.82482289
Ti      6.56673477     4.49079383     3.51137641    -7.49886915     1.30663665    -1.82482289
O       2.45476098     1.74265215     4.82976706    -0.24014061     0.92690000    -1.29323837
O       5.03710531     3.20641919     4.63493910     0.24014061    -0.92690000     1.29323837
O       1.77031787     1.74267215     0.09744447     1.61015215    -0.52068869    -0.73260886
O       5.72154849     3.20639929     9.36726144    -1.61015215     0.52068869     0.73260886
O       3.86417108     0.73188346     0.09741372     0.23985882    -0.92774615    -1.29341809
O       3.62769522     4.21718793     9.36729214    -0.23985882     0.92774615     1.29341809
O       4.54861424     0.73186351     4.82979776    -1.61010253     0.51917585    -0.73391318
O       2.94325201     4.21720790     4.63490836     1.61010253    -0.51917585     0.73391318
O       1.61385627     3.01030581     2.55665324     0.34265105    -1.36783485    -1.15000551
O       5.87800997     1.93876554     6.90805293    -0.34265105     1.36783485     1.15000551
O       3.67893152     1.93871949     2.17572992     2.16971517    -1.35092521    -2.44693341
O       3.81293476     3.01035186     7.28897604    -2.16971517     1.35092521     2.44693341
O       0.44092202     0.53577003     2.17569969     0.34242273    -1.36879824     1.15049916
O       7.05094421     4.41330132     7.28900627    -0.34242273     1.36879824    -1.15049916
O       2.64000052     0.53581608     6.90808306    -2.17099069     1.35238148    -2.44893733
O       4.85186577     4.41325527     2.55662301     2.17099069    -1.35238148     2.44893733
