# total energy = -4986.70507396 eV

CRYSTAL
PRIMVEC
        3.28889117     0.00000000     0.00000000
        1.26848003     4.99463936     0.00000000
       -0.00000816    -0.00006753     5.19457074
PRIMCOORD
6 1
Ti      2.27868139     2.49728582     2.59728543     0.00000000     0.00000000     0.00000000
Ti      0.00000000     0.00000000     0.00000000     0.00000000     0.00000000     0.00000000
O       1.89165197     0.97336843     1.01234536     0.77338580    -0.38360333    -0.66328650
O       2.66571075     4.02120321     4.18222550    -0.77338580     0.38360333     0.66328650
O       0.38702595     1.52389006     3.60963182    -0.77347116     0.38390904    -0.66312118
O       0.88144579     3.47068167     1.58493903     0.77347116    -0.38390904     0.66312118
