# total energy = -4874.08076298 eV

CRYSTAL
PRIMVEC
        5.12854556     0.00000000     0.00000000
       -0.00000665     1.94531011     0.00000000
       -2.56430353    -0.97274739     5.66007087
PRIMCOORD
6 1
Ti     -0.00021913     1.45903764     1.41501747    -0.06308075    -0.05447707   113.31912353
Ti      2.56445456    -0.48647517     4.24505296     0.06308075     0.05447707  -113.31912353
O       0.00005445     0.48631205     0.92197922     0.06190962     0.05554151  -106.02484459
O       2.56418083     0.48625038     4.73809126    -0.06190962    -0.05554151   106.02484459
O      -0.00002223    -0.48636563     3.75201466    -0.00057104     0.00008690     0.17965127
O       2.56425742     1.45892800     1.90805582     0.00057104    -0.00008690    -0.17965127
