# total energy = -78964.77145197 eV

CRYSTAL
PRIMVEC
       10.35150501     0.00002646     0.00000000
        0.00002858    11.01713167     0.00000000
        0.00000000     0.00000000     9.26345890
PRIMCOORD
94 1
Ti      7.16829218     8.69437927     3.27317401     0.07396501    -0.03930935     0.04927650
Ti      7.04574427     3.31169460     3.43020700     0.12694467     0.01187387     0.05703763
Ti      1.81557932     8.77070611     3.47693505    -0.04916465    -0.02666621    -0.01241072
Ti      1.83970722     3.40486968     3.50034771    -0.06845976     0.02602652     0.02034618
Ti      8.36092374     7.68297351     5.75451812     0.00161157     0.07769054    -0.03755560
Ti      8.52382287     2.21534684     5.82199084    -0.03815236    -0.05714227    -0.01975405
Ti      3.35254962     7.66039091     5.80915486    -0.09342698    -0.04089444    -0.03415095
Ti      3.22380568     2.20179443     5.79627090    -0.12744783     0.13887587    -0.01047159
Ti      9.75415233     7.68316440     1.12284179    -0.00201420     0.07636359    -0.03860076
Ti      9.59135528     2.21546989     1.19019228     0.03863007    -0.05681163    -0.01967897
Ti      4.41131560     7.66025154     1.17747611     0.09234943    -0.04206403    -0.03417769
Ti      4.53990945     2.20184920     1.16462719     0.12661968     0.13907668    -0.01143601
Ti      5.94807630     8.77067769     8.10862570     0.04843240    -0.02553852    -0.01311854
Ti      5.92388945     3.40508318     8.13213817     0.06872381     0.02470805     0.02017751
Ti      0.59549002     8.69431009     7.90490905    -0.07297333    -0.03826549     0.04870134
Ti      0.71807080     3.31166619     8.06192712    -0.12536832     0.01257064     0.05741353
Ti      7.04194139     6.05787286     1.17569341    -0.00113386    -0.05500672     0.00643367
Ti      7.02969894     0.53882982     1.20127802     0.07244729     0.00889268     0.01808155
Ti      1.89521761     6.03319832     1.21978649     0.00521806     0.02513023     0.00649230
Ti      1.90320186     0.85836627     1.32785565    -0.05956091    -0.01896806    -0.01504662
Ti      8.47203031    10.48548483     8.08567554     0.01135322     0.02737455    -0.05830776
Ti      8.52356748     4.95775593     8.05825218    -0.02247428    -0.03436255    -0.03344929
Ti      3.49773353    10.44199900     7.93961186     0.07748614    -0.07965461    -0.09131405
Ti      3.28055902     4.94455527     8.07629206     0.03767105     0.01059372     0.03195702
Ti      5.86827858     6.03319526     5.85143328    -0.00333035     0.02421209     0.00676663
Ti      5.86033888     0.85854267     5.95956226     0.05808253    -0.01885134    -0.01448046
Ti      0.72189712     6.05785974     5.80743307     0.00180954    -0.05487919     0.00660002
Ti      0.73406123     0.53894449     5.83306652    -0.07330938     0.00793108     0.01906731
Ti      9.64338285    10.48550716     3.45397788    -0.01170675     0.02743754    -0.05680083
Ti      9.59163387     4.95765587     3.42660317     0.02266505    -0.03297698    -0.03274661
Ti      4.26635297    10.44203855     3.30769633    -0.07359580    -0.07914913    -0.09032880
Ti      4.48296833     4.94454926     3.44449463    -0.03791556     0.00980131     0.03217223
O       6.75706903     7.48371421     4.72774356    -0.00118014    -0.02064622     0.01057392
O       6.84578612     1.89224053     4.68026966    -0.02524541    -0.01359806     0.14959815
O       1.62943038     7.43277526     4.75197907    -0.10665454     0.03645749     0.00566671
O       1.66748436     1.89906662     4.71411710     0.01635042    -0.04707486    -0.06715055
O       8.61214442     9.12905805     4.55604339    -0.03484566     0.00741635    -0.02441855
O       8.71117968     3.58301377     4.52293037     0.02602883     0.00524968     0.03524238
O       3.50031099     9.12138346     4.54575187     0.07277202    -0.01807383     0.04377485
O       3.56667340     3.55288417     4.53302278     0.00648021    -0.00524042    -0.03452864
O       6.13428992     7.43280780     0.12018824     0.10623982     0.03543007     0.00697232
O       6.09606383     1.89906795     0.08242027    -0.01685487    -0.04647965    -0.06713873
O       1.00655258     7.48369936     0.09599747     0.00034530    -0.02058400     0.01100998
O       0.91770115     1.89220686     0.04856508     0.02547141    -0.01396469     0.14930144
O       9.50292090     9.12906971     9.18779225     0.03494748     0.00721658    -0.02422314
O       9.40394020     3.58308653     9.15462330    -0.02620958     0.00467221     0.03543496
O       4.26330476     9.12134160     9.17743334    -0.07185285    -0.01775322     0.04406718
O       4.19690564     3.55288424     9.16483234    -0.00644216    -0.00474909    -0.03493153
O       8.72559023     6.35000227     0.06607031    -0.01170289    -0.03678659     0.02789674
O       8.68501077     0.83512841     0.09785363     0.05685457    -0.01602132     0.00084898
O       3.55742214     6.35138789     0.09848093     0.03677502    -0.02091336    -0.00821545
O       3.34887380     0.68813256     0.08273522    -0.12866448    -0.12381203    -0.05671907
O       6.84079147    10.17087365     9.18638946     0.03984440    -0.01391867     0.00959228
O       6.82302765     4.67246695     9.19992892    -0.03275792     0.02464660    -0.00944829
O       1.65269481     4.67852212     9.16585558    -0.00765546    -0.00119659    -0.01397601
O       9.38961342     6.34999392     4.69779004     0.01091202    -0.03682747     0.02780752
O       9.43000785     0.83508732     4.72962010    -0.05693504    -0.01590382     0.00051396
O       4.20620780     6.35137202     4.73027231    -0.03644154    -0.02115350    -0.00885025
O       4.41464831     0.68818287     4.71445265     0.12878532    -0.12393853    -0.05658897
O       6.11096031     4.67856745     4.53412303     0.00687796    -0.00105801    -0.01427786
O       0.92281388    10.17085241     4.55469489    -0.03960452    -0.01382611     0.00914182
O       0.94067554     4.67245603     4.56816555     0.03239411     0.02381922    -0.01007950
O       5.40216648     8.99150259     2.66654195     0.01678828     0.06917941     0.11477692
O       5.36055255     3.35580927     2.45509393     0.02280646     0.02031635     0.02332814
O       0.15640216     8.83267809     2.53187799     0.02732621     0.05717390    -0.06575624
O       0.20789599     3.35171037     2.49048500    -0.01871172    -0.01475068     0.00733870
O      10.10830938     7.60609740     6.75891277     0.04159224    -0.06605346    -0.06878938
O      10.17800090     2.15225101     6.76314639     0.03941683    -0.02746093    -0.00730965
O       4.96354800     7.64139538     6.81179180     0.01510806     0.04071960    -0.09341258
O       4.96429957     2.17241711     6.80389214    -0.02318030     0.14080832     0.00692835
O       8.00700933     7.60608772     2.12713467    -0.04334316    -0.06584212    -0.06794220
O       7.93707492     2.15218166     2.13143911    -0.03903065    -0.02690995    -0.00779379
O       2.80009327     7.64134970     2.18001594    -0.01466404     0.04098366    -0.09358716
O       2.79921657     2.17227848     2.17209058     0.02344281     0.14132562     0.00738190
O       7.60730706     8.83266614     7.16356979    -0.02817364     0.05724101    -0.06488258
O       7.55569875     3.35176359     7.12226510     0.01833146    -0.01499314     0.00714047
O       2.36157636     8.99157307     7.29827592    -0.01723283     0.06935630     0.11533176
O       2.40303211     3.35589988     7.08677782    -0.02232695     0.01943420     0.02304686
O       5.38658234     6.16518417     2.16668747     0.00444775     0.02127949    -0.01781749
O       5.32975116     0.57542986     2.10750667    -0.05677795     0.06207725    -0.02205904
O       0.22668917     6.09109462     2.11977141    -0.04992673     0.00710190     0.00237082
O       0.16996939     0.57655793     2.12363283    -0.07123655     0.04145931    -0.01727036
O      10.24840533    10.42064900     7.20742407    -0.04505963    -0.00896184     0.02361816
O      10.16407256     4.89284220     7.11206431    -0.10059573     0.06163888     0.04696353
O       5.07613604    10.38993619     7.02417775     0.03824440    -0.11668288     0.16289976
O       4.97828421     4.89264252     7.13568360    -0.00152569    -0.01876855    -0.04276517
O       7.53695649     6.09115372     6.75151768     0.04841980     0.00699752     0.00214070
O       7.59348924     0.57656699     6.75546604     0.07162530     0.04236511    -0.01803758
O       2.37710615     6.16519198     6.79844752    -0.00418653     0.02105631    -0.01740175
O       2.43375404     0.57538564     6.73931692     0.05750866     0.06294963    -0.02235061
O       7.86667169    10.42064444     2.57568683     0.04580576    -0.00911636     0.02338008
O       7.95118144     4.89277035     2.48031502     0.09959377     0.06218678     0.04662132
O       2.68765797    10.38991650     2.39251625    -0.03778237    -0.11642911     0.16301366
O       2.78536586     4.89259988     2.50384811     0.00128941    -0.01908711    -0.04269550
