# total energy = -19950.59882717 eV

CRYSTAL
PRIMVEC
        5.35950117     0.00000000     0.00000000
        1.93714733     5.36512479     0.00000000
        0.00000000     0.00000000     9.74723739
PRIMCOORD
24 1
Ti      3.09051319     3.17936790     3.61615557     1.54582878    -2.86391199     1.11402162
Ti      4.20613550     2.18575675     6.13108193    -1.54582878     2.86391199    -1.11402162
Ti      5.41142003     2.18575857     1.25742427    -3.31989139    -0.25081172     1.03240320
Ti      1.88522869     3.17936623     8.48981334     3.31989139     0.25081172    -1.03240320
Ti      2.12193966     0.49680564     1.25746334     1.54582878    -2.86391199    -1.11402162
Ti      5.17470905     4.86831911     8.48977426    -1.54582878     2.86391199     1.11402162
Ti      0.91665505     0.49680367     6.13104285     3.31989139     0.25081172     1.03240320
Ti      6.37999367     4.86832114     3.61619465    -3.31989139    -0.25081172    -1.03240320
O       2.37841851     1.88915158     4.97394063     0.75361530     1.44303424    -0.97307446
O       4.91823018     3.47597306     4.77329687    -0.75361530    -1.44303424     0.97307446
O       1.66557632     1.88917322     0.10035330     0.45924702    -0.67385836     0.59061938
O       5.63107244     3.47595147     9.64688393    -0.45924702     0.67385836    -0.59061938
O       3.94965664     0.79341070     0.10032167    -0.75361530    -1.44303424    -0.97307446
O       3.34699206     4.57171394     9.64691556     0.75361530     1.44303424     0.97307446
O       4.66249888     0.79338905     4.97397226    -0.45924702     0.67385836     0.59061938
O       2.63414977     4.57173560     4.77326524     0.45924702    -0.67385836    -0.59061938
O       1.37300585     3.26337294     2.63297200     0.25899477     0.57715168     0.47230514
O       5.92364284     2.10175170     7.11426550    -0.25899477    -0.57715168    -0.47230514
O       3.63333085     2.10170173     2.24067774     1.46253864     0.14625289    -0.65885186
O       3.66331784     3.26342292     7.50655960    -1.46253864    -0.14625289     0.65885186
O       0.40443230     0.58081058     2.24064659     0.25899477     0.57715168    -0.47230514
O       6.89221639     4.78431406     7.50659075    -0.25899477    -0.57715168     0.47230514
O       2.69474430     0.58086056     7.11429654    -1.46253864    -0.14625289    -0.65885186
O       4.60190440     4.78426408     2.63294091     1.46253864     0.14625289     0.65885186
