# total energy = -18971.17156829 eV

CRYSTAL
PRIMVEC
        7.60600008     0.00000000     0.00000000
        0.00000000     7.60600008     0.00000000
       -1.89786986    -1.89786986     4.85670466
PRIMCOORD
22 1
Ti      6.17820001     5.26795201     1.06044602    -7.78728095    12.48898474    -0.13278596
Ti      5.86174625     1.97520420     2.53521782     2.08772317    -2.23945328   -15.85969941
Ti     -1.20150076     4.20276123     3.93119180     2.97833590    22.68936929   -11.30733615
Ti      0.37246199     3.28036898     1.10845700    -3.12783146   -18.54865265    -4.70213522
Ti     -1.40296679     2.78422821     4.82048179    26.36059615    72.37076088    59.82142538
Ti      5.09433525     2.27972020     4.23545581   -77.73476490   -29.95924048   -29.47820670
Ti     -0.58562575     1.80128623     4.27263781    54.88476433   -39.57579697   -25.53961098
Ti     -0.87269076    -0.19954777     3.54793481    -1.66127624    -6.48905515    -4.57614778
O       4.35146702     6.67282601     0.23817300     0.52276717    -0.71262701     0.91179477
O       5.68051600     6.62447000     2.07599299    -2.03325279     1.71046018    -0.55922183
O      -0.04001702     5.40170500     1.97870301     4.01516423     0.91868070     0.21151856
O      -0.76395176    -1.61909479     4.38216681     1.32787063    -5.78408180     2.58358760
O       5.72940600     3.96633298     1.99932600    -5.90589711     0.24784904    13.50553889
O      -0.04199900     0.97075799     2.18603799    -2.45680517     0.64827074    -0.31359448
O       0.28791725     3.81219524     4.65754880     4.02721011    -0.79491803     2.40087954
O       1.87922499     3.66169601     1.48273100     9.52642334     2.08396010    -1.58964400
O       4.19080722     1.86431225     2.80724880    -5.02935116    -2.09698532    -4.80561419
O       0.33537423     3.25064123     2.46166483    -5.38759981    -2.07980880    28.45653349
O       4.33813424     4.12912923     4.19252482     1.01611423     0.46705469    -0.29302514
O       5.78121600     3.23704899     1.01311000    -0.35832064    -6.63201471   -10.69732087
O       0.57465024     0.55339822     4.26638384     4.94330453    -3.07084191     1.41496858
O       5.21533121    -0.32627677     4.53685183    -0.20789357     4.35808575     0.54809615
