# total energy = -19517.41210202 eV

CRYSTAL
PRIMVEC
        5.93400000     0.00000000     0.00000000
        0.00000000     9.29699974     0.00000000
        0.00000000     0.00000000     4.64899994
PRIMCOORD
23 1
Ti      4.56330101     7.07964901     2.27678200     0.48816448    -1.06203261     0.88102585
Ti      4.39920299     2.23873002     2.33014100    -0.52627133    -0.01090354    -0.01197389
Ti      1.48567402     7.19163398     2.15335198     0.79762720    -1.00745938     0.74958715
Ti      1.42133400     2.28824900     2.39687300     0.43555095    -0.16854719    -0.56926996
Ti      3.04564802     4.52121798     0.06437600    -0.21367315    -0.76520944     0.84188053
Ti      2.89926701     9.23613298     4.59857602     0.02528475     0.56408533    -0.19781689
Ti      0.04675800     4.64646799     0.05576401     0.14670437     1.16027681    -0.91505415
Ti      5.85503300     0.14565202     0.00249602     0.52015853    -0.39306680     0.14180462
O       4.38577300     5.54863900     0.90229399     0.05656609     0.02974485     0.19637065
O       4.38843799     0.88832001     0.86529402     0.30429789     0.20524327     0.48303667
O       1.49904199     5.72845999     0.93083898     0.27230718    -1.11614535    -0.25020057
O       1.62433799     0.84085598     1.07372101    -1.02207456     0.00547414    -0.87629707
O       4.55402999     8.39184799     3.69724598    -0.55183196    -0.58667711     0.28744687
O       4.43014700     3.74002297     3.62521300    -0.51550817     0.67111268     1.39575729
O       1.42416002     8.37440101     3.83942702     0.07981710    -0.69243176    -0.99265368
O       1.45524400     3.77340199     3.77436399     0.54707619    -0.75408632    -0.11247295
O       2.97401001     1.33223601     3.31365100    -0.50931027     0.65542663    -0.49197409
O       0.06974598     5.90543703     3.28370602    -0.69297092     1.39319853    -0.93904564
O       5.87775899     1.27466898     3.13856101     0.51923705     0.31948334     1.09518597
O       3.10440098     7.87813102     1.29290798    -0.53645522    -1.38081712     1.98806435
O       2.93380101     3.15693801     1.48856200    -0.33373934     0.91783583    -0.95876498
O       0.00972400     7.98952701     1.51857001    -0.67085249     0.55092231    -1.04201476
O       5.82066701     3.01048900     1.39683299     1.37989589     1.46457264    -0.70262105
