# total energy = -4986.80018894 eV

CRYSTAL
PRIMVEC
        3.70331367     0.00000000     0.00000000
        1.58618331     3.34642416     0.00000000
       -2.64478355    -1.67323426     4.85685836
PRIMCOORD
6 1
Ti      1.18954394     2.50994692     1.21421454     0.00115391    -0.00115391     0.00000000
Ti      1.45516975    -0.83675682     3.64264352    -0.00115391     0.00115391    -0.00000000
O       0.39658429     0.83660165     0.79114248     0.00016892     0.00020517    -2.24676139
O       2.24812926     0.83658833     4.06571563    -0.00016892    -0.00020517     2.24676139
O      -0.39655092    -0.83658058     3.21957151     0.00020517     0.00016892    -2.24676139
O       3.04126442     2.50977051     1.63728660    -0.00020517    -0.00016892     2.24676139
