# total energy = -19074.88401656 eV

CRYSTAL
PRIMVEC
        5.17600016     0.00000000     0.00000000
        0.00000000     5.50899976     0.00000000
        0.00000000     0.00000000     9.26300011
PRIMCOORD
22 1
Ti      1.87026999     3.45137001     3.30394298     0.13617159    -0.17420927    -0.33127082
Ti      3.43390097     2.23549802     5.93356999     0.98757009     0.82960608    -0.57812536
Ti      4.37159999     2.22287900     1.16327500     0.06176975     0.88821980    -0.24347379
Ti      0.71055699     3.17995601     8.07344399     0.91887584     1.12158581     0.23228923
Ti      1.81809100     0.49582501     1.34062997    -0.17749000     0.43219617    -1.74458850
Ti      3.23613701     4.97462901     8.15013299    -0.31386496    -0.06989855    -0.12522074
Ti      0.66488999     0.32894198     6.05155900     0.38235455     0.73771199    -1.53091509
Ti      4.46722999     5.04331701     3.37073801     0.07466358    -0.57649348     1.21328552
O       3.53185602     3.32440399     4.26249899    -0.44535946     0.27949187     1.63904391
O       0.90075700     1.90548197     0.04039602    -0.00577727    -1.21624537     0.28904687
O       4.30192698     3.65630301     9.06802999     0.06044743    -0.54494732    -0.31862331
O       3.47164899     0.68368298     0.27382298     0.53305879     1.54048397    -0.36752776
O       1.72545100     4.59199898     9.19760602    -1.34379888     0.45583696     0.08311840
O       4.15381498     0.78549600     4.76154102     0.55261486    -1.09614396    -0.14280067
O       0.98029001     4.78117302     4.37085502    -0.10021495     0.12238353     1.48947147
O       0.27410699     3.56571601     2.20911002    -0.55124961    -0.41874879     0.80990088
O       0.11174901     2.19892600     6.49175399    -0.05693710    -0.59144522     0.31911927
O       2.71184602     2.10901000     2.12560701    -0.43316162    -0.63031697    -0.04871625
O       2.42078002     3.56849599     7.11502499    -0.28465876    -0.98374891    -1.52728727
O       0.02095298     0.81435399     2.15129899     1.22216920    -0.64588321     0.67013515
O       2.61745700     0.79618601     6.81342200    -1.70205010    -0.52836807     0.04316987
O       2.77173201     4.74037298     2.36795199     0.48486756     1.06893294     0.16996901
