# total energy = -19517.16632256 eV

CRYSTAL
PRIMVEC
        5.93400000     0.00000000     0.00000000
        0.00000000     9.29699974     0.00000000
        0.00000000     0.00000000     4.64899994
PRIMCOORD
23 1
Ti      4.49533502     6.97570002     2.26201398     2.58261366     0.94166405    -0.35938790
Ti      4.39906900     2.25447098     2.44201003     1.48783702     0.48228951    -0.68469865
Ti      1.54318299     7.03594500     2.16866600    -2.27453651     1.34406473     0.24068260
Ti      1.42854198     2.31211098     2.27219498    -0.81880693     0.08271833    -0.27617643
Ti      2.92084802     4.38165198     0.15664901     0.75750204     1.13363966    -0.15934598
Ti      2.95213203     0.00539602     4.53703001    -0.26697548    -1.48768198     0.24403146
Ti      0.02930002     4.67061498     4.64371500    -0.44516842     0.48138602     0.23588852
Ti      5.87377799     0.18729700     4.64070599     0.41673612    -2.12070272     0.86954098
O       4.42851099     5.63070598     0.93519500    -0.26735240    -0.62598235    -0.80207444
O       4.45636498     0.94761199     1.02472899    -0.19714532    -0.27697322    -1.03153391
O       1.57152800     5.47939198     0.98066302    -0.73478659     0.20808537    -0.88901607
O       1.57024602     0.91067198     0.93306300    -0.05447244     0.52661612    -0.09329200
O       4.59945202     8.43436801     3.77497000    -1.27387719    -0.28314001    -0.46846211
O       4.30429198     3.56543698     3.82664903     0.88421196     1.51182259     0.47292529
O       1.35736902     8.32028100     3.51483699     1.82789665     1.49534824     2.39860257
O       1.48294399     3.74591002     3.73721299     0.07996082     0.00467530     0.16750281
O       2.98915501     1.29599202     3.19341500    -1.20907457     0.22640500     0.30845973
O       0.10850399     6.10472798     3.12991902    -0.92893606    -1.31970378     1.16399205
O       0.06757398     1.53249901     3.37968999    -0.12458131     0.34479740    -0.94116320
O       3.05969402     7.93686498     1.43007898     0.08683364    -0.46752186    -0.25730556
O       2.97221298     3.30650600     1.54873200    -0.18036758    -1.19150904     0.69264722
O       0.08635300     7.95192098     1.38203100    -0.57667757    -0.47670533    -0.35904389
O       5.78457199     3.35127900     1.50969602     1.22916620    -0.53359229    -0.47277360
