# total energy = -19948.31245941 eV

CRYSTAL
PRIMVEC
        4.99814518     0.00000000     0.00000000
        1.56076957     5.08541849     0.00000000
        0.00000000     0.00000000     9.05023372
PRIMCOORD
24 1
Ti      2.73649781     3.01361431     3.35757216     2.46764854    -2.25415845     1.01220564
Ti      3.82241686     2.07180429     5.69266161    -2.46764854     2.25415845    -1.01220564
Ti      4.94643682     2.07180604     1.16750857    -4.67479359     0.17095940     1.76337993
Ti      1.61247792     3.01361275     7.88272531     4.67479359    -0.17095940    -1.76337993
Ti      1.95611314     0.47090515     1.16754485     2.46804423    -2.25640329    -1.01200381
Ti      4.60280155     4.61451360     7.88268902    -2.46804423     2.25640329     1.01200381
Ti      0.83209315     0.47090325     5.69262533     4.67473394    -0.17184206     1.76265771
Ti      5.72682154     4.61451550     3.35760845    -4.67473394     0.17184206    -1.76265771
O       2.13151798     1.79066234     4.61826500    -0.65852558     0.23096357    -0.93377693
O       4.42739669     3.29475632     4.43196878     0.65852558    -0.23096357     0.93377693
O       1.46673709     1.79068285     0.09317725     1.11815390    -0.80802269    -0.20125780
O       5.09217764     3.29473584     8.95705627    -1.11815390     0.80802269     0.20125780
O       3.64701200     0.75204701     0.09314788     0.65894313    -0.23107207    -0.93387824
O       2.91190267     4.33337164     8.95708564    -0.65894313     0.23107207     0.93387824
O       4.31179294     0.75202653     4.61829436    -1.11800554     0.80819290    -0.20068547
O       2.24712169     4.33339218     4.43193941     1.11800554    -0.80819290     0.20068547
O       1.13094271     3.09323984     2.44469391    -0.26297741    -1.12169431    -1.36002383
O       5.42797196     1.99217881     6.60553986     0.26297741     1.12169431     1.36002383
O       3.29208316     1.99213139     2.08045175     1.52164164    -1.55732933    -2.02122851
O       3.26683151     3.09328726     6.96978187    -1.52164164     1.55732933     2.02122851
O       0.35055796     0.55053054     2.08042285    -0.26304452    -1.12216533     1.36016139
O       6.20835666     4.53488812     6.96981077     0.26304452     1.12216533    -1.36016139
O       2.48644682     0.55057795     6.60556872    -1.52139610     1.55727123    -2.02137917
O       4.07246785     4.53484070     2.44466501     1.52139610    -1.55727123     2.02137917
