# total energy = -19517.47204763 eV

CRYSTAL
PRIMVEC
        5.93400000     0.00000000     0.00000000
        0.00000000     9.29699974     0.00000000
        0.00000000     0.00000000     4.64899994
PRIMCOORD
23 1
Ti      4.59624499     7.22170400     2.24576798     0.81631810    -0.43380414     0.20602540
Ti      4.37230999     2.22723899     2.34553202    -0.51713671     0.13702082     0.03893089
Ti      1.51879999     6.98109001     2.21550899    -1.48796351     0.54851601     0.68560651
Ti      1.37164601     2.27044901     2.27928098     0.57002072     0.38396252     0.33462380
Ti      3.04178301     4.43651602     0.09895900    -0.29569600     0.00852604     0.21337773
Ti      2.90163597     9.17354899     4.62145299     0.52128905     0.26010549    -0.63150328
Ti      0.08364699     4.74275698     0.10481498    -0.99863895    -0.47012484    -1.30059302
Ti      5.89624400     0.12735698     0.02373799     0.81452167    -0.74641981    -0.35206206
O       4.33758802     5.70944798     0.91156999    -0.15907730    -0.94241353    -0.48396844
O       4.47071500     0.78941101     0.94493901    -0.05590480     1.25986338     0.47024286
O       1.54236102     5.51531200     0.83655102     0.76574011     1.55687065     1.25963559
O       1.60878901     0.88469498     0.90806700    -1.62252610     0.57338064     0.16158284
O       4.57006601     8.15156299     3.91666800    -1.07440579     1.15967826    -0.76646516
O       4.29177397     3.71128500     3.64693599     0.48248903     0.48676580     0.04349048
O       1.53061599     8.33821598     3.78146099    -0.19027456    -0.75647077    -0.59002160
O       1.33027498     3.78741900     3.66986301     0.93609838     0.03679070     0.03641995
O       2.90454502     1.25306702     3.25946399     0.52896790     1.25300137    -0.75905524
O       0.08664701     6.27424801     3.24256900    -0.19224094    -1.26468215    -0.60645764
O       5.89509902     1.38082199     3.23206901    -0.22198630     0.05495735    -0.08173746
O       2.94978899     8.04816398     1.57028301     0.69231581    -1.14561020     0.42303379
O       2.87269897     3.12684900     1.34362401     0.55144784     0.10898216     0.22829656
O       0.14458101     7.98314101     1.33802002    -0.01423543    -0.83522420     0.95212202
O       5.81799800     3.37959702     1.36948500     0.15087779    -1.23367129     0.51847523
