# total energy = -19518.41595845 eV

CRYSTAL
PRIMVEC
        7.60600008     0.00000000     0.00000000
        0.00000000     7.60600008     0.00000000
       -1.89786986    -1.89786986     4.85670466
PRIMCOORD
23 1
Ti      3.80655199     6.58079700     1.17458902     0.36517957     1.67091557     0.67641584
Ti      3.78308102     2.82843600     1.23777602     0.40519392    -1.29785710     1.61061084
Ti      0.05167897     6.74359399     1.16771099    -0.62891983    -0.44393095     0.51592547
Ti     -0.02344298     2.89118298     1.20731001    -0.11661680    -0.20607322    -1.07971383
Ti      5.62399220     2.91293825     3.71729979    -1.55091366    -2.02303111    -0.83360389
Ti      5.74594120    -1.02396279     3.58036581    -0.29365891     2.67910849    -0.45503709
Ti      1.83101324     2.76684723     3.72150283     1.80980327     0.81193360    -1.11126308
Ti      1.90329621    -0.94288178     3.60775083     0.44496633    -0.48812643     0.48540106
O       3.95964598     4.70416498     0.91131599    -0.85272288     0.27512948    -0.62343927
O       3.79912101     0.90514800     0.82333900     0.00008330     0.07451368    -0.87185883
O      -0.18217800     4.78350299     0.78127602     0.92810277     0.46373539     0.40260611
O      -0.03686302     0.92004900     0.73134302     0.36643839     0.54971440    -0.16868988
O       5.74156724     4.81294620     3.92623680     0.43366427    -0.96432885     0.30450075
O       5.68424723     1.03034123     4.12090280     0.88145754    -0.47840637    -0.50510652
O       1.81895324     4.76261324     3.90797283    -0.21146200    -0.60990601     1.28181033
O       2.04104925     0.94710821     4.07856481    -1.19426166    -0.05365663     0.66141396
O       3.71584725     2.84507624     3.36422383     1.07278188     0.55083077    -1.30989913
O       3.82793625    -0.70489177     3.09705182     0.06524588    -1.13612823     0.31225391
O       0.08307824    -0.76846279     3.08763881    -0.80669831    -0.00898807     1.63045359
O       5.80536701     6.64470802     1.66904002    -1.35359556    -0.06134577    -0.81851511
O       5.77924598     2.68087698     1.65948700    -0.39389984     0.49896415     0.96631092
O       1.87276501     6.55860098     1.64756802     1.48687414    -0.22918976    -1.15549044
O       1.87878302     2.71044598     1.68579002    -0.85704156     0.42612297     0.08491380
