# total energy = -19958.39870556 eV

CRYSTAL
PRIMVEC
        4.94284364     0.00000000     0.00000000
        0.00002709     5.26068037     0.00000000
        0.00000000     0.00000000     8.84660325
PRIMCOORD
24 1
Ti      1.79155914     3.11747432     3.28202677    -0.02574909     0.45088579    -0.47111858
Ti      3.15131159     2.14320610     5.56457673     0.02574909    -0.45088579     0.47111858
Ti      4.26289443     2.14320791     1.14123963    -0.02090770    -0.45109533     0.47740518
Ti      0.67997631     3.11747272     7.70536398     0.02090770     0.45109533    -0.47740518
Ti      1.79154569     0.48713424     1.14127511    -0.02514103     0.44247930     0.47639654
Ti      3.15132504     4.77354634     7.70532850     0.02514103    -0.44247930    -0.47639654
Ti      0.67996286     0.48713228     5.56454126     0.02148517     0.44221422     0.47156621
Ti      4.26290787     4.77354830     3.28206225    -0.02148517    -0.44221422    -0.47156621
O       1.56445076     1.85237504     4.51435402    -0.89227571    -0.79733795    -0.09301329
O       3.37841997     3.40830544     4.33224949     0.89227571     0.79733795     0.09301329
O       0.90701904     1.85239623     0.09108074     0.89165479    -0.79707930    -0.09275541
O       4.03585174     3.40828425     8.75552251    -0.89165479     0.79707930     0.09275541
O       3.37840653     0.77796520     0.09105204     0.89227212     0.79735544    -0.09286725
O       1.56446420     4.48271523     8.75555122    -0.89227212    -0.79735544     0.09286725
O       4.03583830     0.77794401     4.51438272    -0.89223226     0.79746445    -0.09290376
O       0.90703238     4.48273646     4.33222078     0.89223226    -0.79746445     0.09290376
O       0.17960140     3.19984403     2.38968830    -0.32253370     0.19808146    -0.21161678
O       4.76326933     2.06083640     6.45691521     0.32253370    -0.19808146     0.21161678
O       2.65102718     2.06078737     2.03364158    -0.32293942    -0.19808892     0.21218602
O       2.29184355     3.19989306     6.81296177     0.32293942     0.19808892    -0.21218602
O       0.17958796     0.56950379     2.03361333    -0.32286820     0.19821773     0.21194460
O       4.76328278     4.69117663     6.81299002     0.32286820    -0.19821773    -0.21194460
O       2.29183010     0.56955282     6.45694341     0.32253781     0.19833651     0.21184689
O       2.65104063     4.69112761     2.38966005    -0.32253781    -0.19833651    -0.21184689
