# total energy = -19519.95060350 eV

CRYSTAL
PRIMVEC
        5.17575250     0.00001323     0.00000000
        0.00001429     5.50856584     0.00000000
        0.00000000     0.00000000     9.26345890
PRIMCOORD
23 1
Ti      1.84511663     3.37519573     3.39458608    -0.11874567    -0.05680880    -0.05442796
Ti      3.34910681     2.17915542     5.77188506     0.00202629    -0.01287635    -0.00178255
Ti      4.55192087     1.95053140     1.41357762    -0.03883241     0.12217193    -0.08805055
Ti      0.88276990     3.29473879     7.93669126    -0.03880130    -0.02493508     0.08304949
Ti      1.94631137     0.57884619     1.18782454     0.11048626    -0.08967034    -0.04703784
Ti      3.19790824     5.15575064     7.94604912    -0.07384211    -0.09697716    -0.00905029
Ti      0.68631426     0.67256197     5.67662183    -0.12470189     0.06852455     0.03572961
Ti      4.43646285     4.85645161     3.50117675     0.17996469    -0.01220966     0.01602723
O       1.58815051     1.91378688     4.66598381     0.01331678     0.07470523    -0.03026344
O       3.52217671     3.56122725     4.52197824    -0.05445341    -0.09415640     0.07968392
O       0.79809226     2.06844826     0.11641829    -0.02926328     0.05465396    -0.05904978
O       3.54555757     0.88206523     0.08387636     0.02740720     0.16017130     0.03183721
O       1.73622618     4.67403591     9.16732966    -0.02030195     0.00210625    -0.07425426
O       4.13365435     0.76503493     4.73618829    -0.03167600     0.12228145     0.03057763
O       0.93262438     4.63679647     4.56633447     0.09355348    -0.01985381     0.03521564
O       0.15316571     3.37225936     2.43766282     0.09951664    -0.03749930     0.00650772
O       4.97856436     2.11722986     6.79879942    -0.06643142     0.01708884    -0.02622372
O       2.78266689     2.16247605     2.12744442    -0.07166824    -0.05345171    -0.10126756
O       2.54276053     3.39352022     7.15290558    -0.07048785     0.03637187     0.04839229
O       0.23071655     0.55634010     2.19961423     0.02717091    -0.06043097     0.03321584
O       4.93875078     4.76315845     7.37207063     0.05949252    -0.06669367    -0.00994966
O       2.32157010     0.71773979     6.78133385     0.05138017    -0.04981129    -0.03265662
O       2.78260007     4.88670462     2.43707068     0.07489061     0.01729890     0.13377763
