# total energy = -19932.18865332 eV

CRYSTAL
PRIMVEC
        6.01721391     0.00000000     0.00000000
        2.46315713     5.91149751     0.00000000
        0.00000000     0.00000000    11.00035767
PRIMCOORD
24 1
Ti      3.64061531     3.50314806     4.08105424     0.38245019    -2.68503359     0.78571913
Ti      4.83975582     2.40834962     6.91930356    -0.38245019     2.68503359    -0.78571913
Ti      6.19295171     2.40835163     1.41908068    -1.28384227    -0.97403220     0.43535863
Ti      2.28741947     3.50314629     9.58127717     1.28384227     0.97403220    -0.43535863
Ti      2.40903687     0.54739928     1.41912478     0.38245019    -2.68503359    -0.78571913
Ti      6.07133430     5.36409857     9.58123307    -0.38245019     2.68503359     0.78571913
Ti      1.05584088     0.54739711     6.91925940     1.28384227     0.97403220     0.43535863
Ti      7.42453029     5.36410075     4.08109833    -1.28384227    -0.97403220    -0.43535863
O       2.77180568     2.08153883     5.61339834     1.73248426     2.12602260    -0.92707509
O       5.70856540     3.82995886     5.38695946    -1.73248426    -2.12602260     0.92707509
O       1.97148541     2.08156271     0.11325485    -0.01140002    -0.81853825     1.44879429
O       6.50888580     3.82993507    10.88710258     0.01140002     0.81853825    -1.44879429
O       4.47698692     0.87420996     0.11321914    -1.73248426    -2.12602260    -0.92707509
O       4.00338421     5.03728771    10.88713829     1.73248426     2.12602260     0.92707509
O       5.27730726     0.87418612     5.61343399     0.01140002     0.81853825     1.44879429
O       3.20306377     5.03731164     5.38692374    -0.01140002    -0.81853825    -1.44879429
O       1.71685112     3.59570807     2.97147106     0.60147201     2.39744737     2.26496815
O       6.76351995     2.31578962     8.02888673    -0.60147201    -2.39744737    -2.26496815
O       4.19214060     2.31573461     2.52874282     0.97181899     1.74797259     1.06320195
O       4.28823048     3.59576308     8.47161479    -0.97181899    -1.74797259    -1.06320195
O       0.48527264     0.63995911     2.52870765     0.60147201     2.39744737    -2.26496815
O       7.99509849     5.27153857     8.47164990    -0.60147201    -2.39744737     2.26496815
O       3.05665201     0.64001418     8.02892178    -0.97181899    -1.74797259     1.06320195
O       5.42371907     5.27148351     2.97143595     0.97181899     1.74797259    -1.06320195
