# total energy = -19901.81905415 eV

CRYSTAL
PRIMVEC
        7.50484097     0.00000000     0.00000000
        0.00002363     3.02971121     0.00000000
        0.00000000     0.00000000    11.61562267
PRIMCOORD
24 1
Ti      2.72015800     1.79540402     4.30931318    -0.56596918     0.39998487     0.75358676
Ti      4.78470682     1.23430709     7.30630960     0.56596918    -0.39998487    -0.75358676
Ti      6.47245040     1.23430812     1.49845180    -0.56475485    -0.40009928    -0.75261565
Ti      1.03241442     1.79540314    10.11717109     0.56475485     0.40009928     0.75261565
Ti      2.72014629     0.28054847     1.49849837    -0.56574318     0.39289865    -0.75318592
Ti      4.78471853     2.74916274    10.11712452     0.56574318    -0.39289865     0.75318592
Ti      1.03240271     0.28054738     7.30626303     0.56516339     0.39262868    -0.75230455
Ti      6.47246211     2.74916383     4.30935975    -0.56516339    -0.39262868     0.75230455
O       2.37533797     1.06681280     5.92736333     5.65683297    -0.53708848     1.30087635
O       5.12952689     1.96289830     5.68825945    -5.65683297     0.53708848    -1.30087635
O       1.37714320     1.06682500     0.11958935    -5.65438425    -0.53772226     1.30233828
O       6.12772172     1.96288610    11.49603311     5.65438425     0.53772226    -1.30233828
O       5.12951519     0.44804270     0.11955167    -5.65585235     0.53690953     1.30045366
O       2.37534963     2.58166840    11.49607079     5.65585235    -0.53690953    -1.30045366
O       6.12771001     0.44803050     5.92740106     5.65735799     0.53722501     1.30209891
O       1.37715475     2.58168066     5.68822172    -5.65735799    -0.53722501    -1.30209891
O       0.27268262     1.84284209     3.13766945     0.60985253    -0.29105156     1.53300155
O       7.23218219     1.18686901     8.47795333    -0.60985253     0.29105156    -1.53300155
O       4.02511299     1.18684085     2.67017882     0.60970829     0.29108755    -1.53214074
O       3.47975187     1.84287031     8.94544375    -0.60970829    -0.29108755     1.53214074
O       0.27267091     0.32798649     2.67014172     0.61009010    -0.29075511    -1.53017770
O       7.23219390     2.70172461     8.94548084    -0.61009010     0.29075511     1.53017770
O       3.47974017     0.32801465     8.47799032    -0.60952754    -0.29123873    -1.53401045
O       4.02512470     2.70169645     3.13763241     0.60952754     0.29123873     1.53401045
