# total energy = -4987.02541087 eV

CRYSTAL
PRIMVEC
        3.51634646     0.00000000     0.00000000
        0.69629892     3.44671731     0.00000000
       -2.10635472    -1.72338486     4.51047446
PRIMCOORD
6 1
Ti      0.52210298     2.58516979     1.12761874     0.00093485    -0.00091248     0.00053402
Ti      1.58418768    -0.86183734     3.38285587    -0.00093485     0.00091248    -0.00053402
O       0.17411157     0.86167429     0.73471949     0.00062298     0.00204763     1.05314224
O       1.93217897     0.86165807     3.77575517    -0.00062298    -0.00204763    -1.05314224
O      -0.17408849    -0.86165541     2.98995662     0.00205843     0.00068597     1.05517393
O       2.28037894     2.58498768     1.52051799    -0.00205843    -0.00068597    -1.05517393
