# total energy = -4984.22018315 eV

CRYSTAL
PRIMVEC
        2.69250635     0.00000000     0.00000000
        0.62927383     4.17155823     0.00000000
       -0.00000395    -0.00005476     4.23073613
PRIMCOORD
6 1
Ti      1.66088787     2.08575166     2.11536802     0.00000000     0.00000000     0.00000000
Ti      0.00000000     0.00000000     0.00000000     0.00000000     0.00000000     0.00000000
O       1.46888849     0.81296453     0.82450813    -3.56385292     2.07839289     2.24015519
O       1.85288726     3.35853878     3.40622786     3.56385292    -2.07839289    -2.24015519
O       0.19199767     1.27276493     2.93987705     3.56421571    -2.08004765     2.24189892
O       0.43727183     2.89873847     1.29085894    -3.56421571     2.08004765    -2.24189892
