# total energy = -19913.16737029 eV

CRYSTAL
PRIMVEC
        6.49396300     0.00000000     0.00000000
        1.70133555     6.69886913     0.00000000
        0.00000000     0.00000000    11.71606961
PRIMCOORD
24 1
Ti      3.36195919     3.96974384     4.34657848    -0.25786426    -1.82588604     0.68550932
Ti      4.83333955     2.72912573     7.36949179     0.25786426     1.82588604    -0.68550932
Ti      6.29375002     2.72912805     1.51140988     0.15262665    -0.42167316    -0.25545128
Ti      1.90154875     3.96974178    10.20466053    -0.15262665     0.42167316     0.25545128
Ti      2.51129156     0.62030932     1.51145685    -0.25786426    -1.82588604    -0.68550932
Ti      5.68400722     6.07856051    10.20461355     0.25786426     1.82588604     0.68550932
Ti      1.05088099     0.62030675     7.36944481    -0.15262665     0.42167316    -0.25545128
Ti      7.14441778     6.07856301     4.34662546     0.15262665    -0.42167316     0.25545128
O       2.65444947     2.35878584     5.97862092     1.79634766     1.98339368    -0.58876896
O       5.54084921     4.34008373     5.73744935    -1.79634766    -1.98339368     0.58876896
O       1.79071526     2.35881288     0.12062354    -0.77928083     0.14554995     0.93656530
O       6.40458357     4.34005681    11.59544641     0.77928083    -0.14554995    -0.93656530
O       4.69018154     0.99064902     0.12058552    -1.79634766    -1.98339368    -0.58876896
O       3.50511720     5.70822055    11.59548442     1.79634766     1.98339368     0.58876896
O       5.55391590     0.99062204     5.97865894     0.77928083    -0.14554995     0.93656530
O       2.64138279     5.70824761     5.73741134    -0.77928083     0.14554995    -0.93656530
O       1.27078942     4.07463210     3.16480288     0.51945482     1.60514081     1.72208851
O       6.92450926     2.62423748     8.55126739    -0.51945482    -1.60514081    -1.72208851
O       4.14940615     2.62417501     2.69326955     0.61894318     1.65656290     0.87105331
O       4.04589260     4.07469462     9.02280053    -0.61894318    -1.65656290    -0.87105331
O       0.42012176     0.72519738     2.69323213     0.51945482     1.60514081    -1.72208851
O       7.77517699     5.97367225     9.02283795    -0.51945482    -1.60514081     1.72208851
O       3.19522493     0.72525985     8.55130475    -0.61894318    -1.65656290     0.87105331
O       5.00007382     5.97360972     3.16476546     0.61894318     1.65656290    -0.87105331
