# total energy = -19933.37997001 eV

CRYSTAL
PRIMVEC
        6.07264042     0.00000000     0.00000000
        0.96407893     6.39081731     0.00000000
        0.00000000     0.00000000    10.89955700
PRIMCOORD
24 1
Ti      2.77235233     3.78719236     4.04365794    -0.04339227    -1.55849147     0.78187867
Ti      4.26436694     2.60362477     6.85589930     0.04339227     1.55849147    -0.78187867
Ti      5.63002705     2.60362693     1.40607709     0.00907703     0.01265986    -0.34086079
Ti      1.40669224     3.78719044     9.49348027    -0.00907703    -0.01265986     0.34086079
Ti      2.29031300     0.59178382     1.40612080    -0.04339227    -1.55849147    -0.78187867
Ti      4.74640629     5.79903350     9.49343656     0.04339227     1.55849147     0.78187867
Ti      0.92465288     0.59178147     6.85585559    -0.00907703    -0.01265986    -0.34086079
Ti      6.11206641     5.79903584     4.04370165     0.00907703     0.01265986     0.34086079
O       2.26149759     2.25031534     5.56196056     1.63670446     1.75308240    -0.40758042
O       4.77522169     4.14050179     5.33759662    -1.63670446    -1.75308240     0.40758042
O       1.45379914     2.25034117     0.11221704    -0.97592710     0.57359302     0.56972350
O       5.58292020     4.14047601    10.78733989     0.97592710    -0.57359302    -0.56972350
O       4.29318234     0.94509306     0.11218169    -1.63670446    -1.75308240    -0.40758042
O       2.74353693     5.44572406    10.78737525     1.63670446     1.75308240     0.40758042
O       5.10088085     0.94506729     5.56199597     0.97592710    -0.57359302     0.56972350
O       1.93583836     5.44574991     5.33756127    -0.97592710     0.57359302    -0.56972350
O       0.80704051     3.88725735     2.94424232     0.42100776     0.78672006     1.07010587
O       6.22967876     2.50355971     7.95531493    -0.42100776    -0.78672006    -1.07010587
O       3.63462776     2.50350027     2.50557098     0.62987500     1.12344574     0.32159987
O       3.40209151     3.88731679     8.39398608    -0.62987500    -1.12344574    -0.32159987
O       0.32500117     0.69184863     2.50553612     0.42100776     0.78672006    -1.07010587
O       6.71171810     5.69896844     8.39402088    -0.42100776    -0.78672006     1.07010587
O       2.92005216     0.69190807     7.95534966    -0.62987500    -1.12344574     0.32159987
O       4.11666711     5.69890900     2.94420752     0.62987500     1.12344574    -0.32159987
