# total energy = -19958.05234993 eV

CRYSTAL
PRIMVEC
        5.93400000     0.00000000     0.00000000
        0.00000000     9.29699974     0.00000000
        0.00000000     0.00000000     4.64899994
PRIMCOORD
24 1
Ti      4.46131998     6.91046300     2.11377302    -0.14958092     0.86371178     1.16823386
Ti      4.42793297     2.40507599     2.37157902    -1.27801589    -1.31216041    -0.16656872
Ti      1.47371398     6.88759598     2.42027402     0.63604256     0.31986849     0.38184187
Ti      1.42562701     2.38911199     2.37036101     1.22031055    -1.21746896    -0.00168767
Ti      2.99561902     4.94688297     0.00490198    -1.35819629    -4.75189174     1.13038695
Ti      3.00154898     9.07644301     4.61555600    -0.36447972     3.91894400     0.23424121
Ti      5.92447799     4.66684899     4.53149000     1.38211296    -3.67912915    -0.53021772
Ti      5.90228498     9.08971303     0.20303002     0.58666168     4.95649378    -1.47148711
O       4.63644299     5.57522301     0.79245701    -0.86278798     1.23312390     1.10529786
O       4.30064902     0.78542398     0.94957301     1.39573775    -0.85514486    -0.12679683
O       1.42628102     5.69793599     0.85741198    -0.14505218    -0.57768339    -0.10609455
O       1.50086299     0.89463701     0.87629599    -0.79075130    -0.74681499     0.87001432
O       4.46245401     8.22957398     3.87110902     0.51804997    -0.34999463    -1.51544605
O       4.28741101     3.71757401     3.65012502     1.74695160     3.03635775     2.38409280
O       1.47393401     8.51203102     3.66437502    -0.58764050    -2.00018736    -0.76572777
O       1.70721799     3.88013900     3.68106501    -2.11251941     0.75581025     0.77986139
O       3.09165400     5.95691999     3.17901301    -0.21002552     2.46891507    -1.90656549
O       3.04673400     1.50306702     3.25979901    -1.46544578    -1.02470480    -0.11072717
O       5.86848500     6.19616097     3.18933202     0.57639192    -1.65425302     0.73130146
O       5.91424301     1.64531399     3.47178398     0.71430903    -0.17812429    -1.72384123
O       2.95382698     7.68313799     1.32780902    -0.10170182     0.01194844     0.67052904
O       2.96163399     3.32489501     1.43941800    -0.40967973     0.43535580    -0.50931670
O       0.12728798     7.81859900     1.45326101    -0.80466560    -0.38076561     0.54978742
O       5.80574300     3.29516398     1.39811402     1.86397489     0.72779396    -1.07111066
