# total energy = -4988.78264296 eV

CRYSTAL
PRIMVEC
        3.46301185     0.00000000     0.00000000
        0.00000000     4.01053712     0.00000000
        0.00000000    -0.00006328     4.82688357
PRIMCOORD
6 1
Ti      1.73150598     2.00523676     2.41344178     0.00000000     0.00000000     0.00000000
Ti      0.00000000     0.00000000     0.00000000     0.00000000     0.00000000     0.00000000
O       1.73150598     0.78158222     0.94068850     0.00000000     0.03735429     0.06488310
O       1.73150598     3.22889125     3.88619502     0.00000000    -0.03735429    -0.06488310
O       0.00000000     1.22362897     3.35413135     0.00000000    -0.03764174     0.06509624
O       0.00000000     2.78684455     1.47275222     0.00000000     0.03764174    -0.06509624
