# total energy = -19960.41849742 eV

CRYSTAL
PRIMVEC
        7.60600008     0.00000000     0.00000000
        0.00000000     7.60600008     0.00000000
       -1.89786986    -1.89786986     4.85670466
PRIMCOORD
24 1
Ti      3.76137099     6.60441900     1.24536701    -0.12374133    -1.16473767     0.09494573
Ti      3.84710601     2.82728202     1.21209197    -2.17389013     0.87037505    -1.83334353
Ti      0.02533701     6.61301802     1.19588798     0.46867243     2.00776466     1.39247528
Ti     -0.02078301     2.99915398     1.14088398     1.48672604    -2.21351984     1.54494484
Ti      5.71598924     2.92582424     3.60665380     1.99648986    -0.73894381    -0.49739860
Ti      5.67097520    -0.97295577     3.65457281     1.27356017     0.53949760     0.60507799
Ti      1.95129523     2.88609520     3.61357882    -1.94816595    -1.19517466     0.02659447
Ti      1.88901424    -1.03424079     3.70245081    -1.23225024     0.77582630    -0.47089206
O       3.62544398     4.68329899     0.65165400     0.80614270    -0.24495886     2.22605397
O       3.59351703     0.79184999     0.82032999     0.91523542     2.69876638     0.10723921
O       0.06057799     4.81297102     0.74658898    -0.77121219     0.11301134    -0.27845700
O       0.10777102     1.01647801     0.82591001    -0.90553644    -1.04338722    -0.87176936
O       5.96973121     4.75471522     4.04193384    -1.02483901     0.28489685     0.12744243
O       5.98321222     0.99371624     4.10255183    -1.50151555    -0.23543009    -0.91574244
O       1.71629920     4.66707024     4.21479879     0.67494286     1.19465324    -1.77292001
O       1.74664821     0.95187023     4.05709879     1.12393605    -1.91828741     0.18844291
O       3.76903925     2.91325623     3.12331880     1.54363975    -0.36016592     1.48193170
O       3.76497125    -1.11394177     3.26531981     0.57998581     0.22052334     0.90847958
O       0.00779923     2.75461122     3.13155079    -1.75849946     0.61126149     0.11523843
O       0.01705925    -1.03816379     3.16972680    -0.19029667     0.18441836    -0.19874918
O       5.66347999     6.55942899     1.66441200     0.51271467     0.33223627    -0.25063560
O       5.64605302     3.00894000     1.61585898     0.70148231    -0.24172852    -0.50002319
O       1.92370298     6.58633902     1.65140403    -1.07210825    -0.18509636     0.63540133
O       1.83624098     3.06429501     1.75176498     0.61852692    -0.29180078    -1.86433639
