# total energy = -4915.75137441 eV

CRYSTAL
PRIMVEC
        4.62082517     0.00000000     0.00000000
       -0.00000639     2.22484161     0.00000000
       -2.31043847    -1.11248296     4.97811602
PRIMCOORD
6 1
Ti     -0.00019741     1.66870498     1.24452874    -0.05599222    -0.04326551    67.62788395
Ti      2.31057767    -0.55634647     3.73358666     0.05599222     0.04326551   -67.62788395
O       0.00004917     0.55619973     0.81089430     0.05971106     0.04351748   -56.12176417
O       2.31033095     0.55615868     4.16722115    -0.05971106    -0.04351748    56.12176417
O      -0.00001888    -0.55622503     3.29995222     0.00031625    -0.00050856     0.83109963
O       2.31039895     1.66858344     1.67816323    -0.00031625     0.00050856    -0.83109963
