# total energy = -19517.96552984 eV

CRYSTAL
PRIMVEC
        7.60600008     0.00000000     0.00000000
        0.00000000     7.60600008     0.00000000
       -1.89786986    -1.89786986     4.85670466
PRIMCOORD
23 1
Ti      3.84872403     6.84192100     1.23504700     0.33299475    -0.91448517    -1.22260731
Ti      3.75580002     2.88600799     1.34355701    -0.91222157     1.15084883     0.78871241
Ti      0.00644400     6.62450398     1.11042798    -0.41714519    -0.93707386    -0.17458851
Ti     -0.10581402     2.72492401     1.15133698     0.75586630     1.58121746     0.14790559
Ti      5.71803023     2.73150522     3.67320784    -1.03733432    -0.07883288     1.41530874
Ti      5.69230623    -1.05182879     3.52642984     0.61549996     0.26729738     0.27482455
Ti      2.02893220     2.80978620     3.79007483     0.70756425     1.70413166    -0.38400134
Ti      1.87706124    -0.87011276     3.56783383    -0.15619200    -0.92340896    -0.10955706
O       4.00524899     4.78905401     1.04634302    -1.09081175    -0.17218941    -0.83099808
O       3.72718201     1.10040901     0.69854397     0.05256905    -1.12938114     0.22829039
O      -0.13740198     4.68223900     0.82962599     0.71028345     0.66945612    -0.11653169
O       0.08221800     0.96594602     0.61538901    -0.10602128    -1.77223995     0.33819584
O       5.68723423     4.62778925     3.86708579     0.26966254     1.30409357     0.96460679
O       5.69891222     0.89328120     4.03426881     0.97715737    -0.11577759    -0.37916612
O       2.07544122     4.73266123     4.00080279    -0.90633117     1.46909804     0.76336210
O       1.71805422     1.03516124     4.07310883    -0.70277814    -1.20513229     0.32141013
O       3.82910324     2.64293820     3.58770883    -0.68424177     0.25058855    -2.09156363
O       3.85473924    -0.67217079     3.17274179    -1.03964189    -0.60167822    -0.23720364
O      -0.09383080    -1.18878775     3.05913881     1.50836445     0.75938408     0.37632454
O       5.76357799     6.92267001     1.39880201    -0.74454959    -0.25764854     0.87275718
O       5.63320798     2.79798502     1.80624399     1.34439923    -0.61551950    -1.73565160
O       1.89824098     6.78421501     1.58829001     0.14898160    -0.16457303     0.14982981
O       1.74933801     2.89908100     1.76268900     0.37392570    -0.26817490     0.64034042
