# total energy = -4986.49074190 eV

CRYSTAL
PRIMVEC
        4.05415392     0.00000000     0.00000000
        1.73645331     3.66345382     0.00000000
       -2.89534200    -1.83175119     5.31698178
PRIMCOORD
6 1
Ti      1.30223757     2.74773137     1.32924539     0.00044352    -0.00044352     0.00000000
Ti      1.59302794    -0.91602852     3.98773606    -0.00044352     0.00044352     0.00000000
O       0.43415544     0.91585864     0.86609282    -0.00046177    -0.00068494    -2.05913712
O       2.46110993     0.91584407     4.45088869     0.00046177     0.00068494     2.05913712
O      -0.43411891    -0.91583558     3.52458355    -0.00068494    -0.00046177    -2.05913712
O       3.32938420     2.74753825     1.79239796     0.00068494     0.00046177     2.05913712
