# total energy = -19073.48207700 eV

CRYSTAL
PRIMVEC
        5.17600016     0.00000000     0.00000000
        0.00000000     5.50899976     0.00000000
        0.00000000     0.00000000     9.26300011
PRIMCOORD
22 1
Ti      1.68619902     3.44137401     3.41797401     1.13851704     1.87784291     0.83712990
Ti      3.81979301     2.20592701     6.10270801    -0.41034179     0.61374158    -0.93498021
Ti      4.35724299     2.44094199     1.32374499    -0.09926416    -0.46460031     0.71596894
Ti      1.33038002     2.72254398     7.87661397     0.77148293     0.57416843    -1.37500565
Ti      1.72481102     0.81566498     1.43076997    -1.43736470    -0.10763542     0.41801731
Ti      3.17123400     5.37795801     8.00608502    -0.26727501    -0.01304553    -1.94062979
Ti      0.63182700     5.31075298     6.32227503    -0.86794793    -0.24927600    -1.03624263
Ti      4.32872600     5.17143198     3.40391700    -0.38116104     0.82490327     1.78431874
O       3.13677800     3.17934999     4.57407400    -0.07752573     0.45732820    -0.12005256
O       0.67420399     2.00585198     0.21458302    -0.16383307     0.48678560    -1.03342445
O       0.39023499     3.17540403     6.36171598    -0.90869170     0.53472769    -0.78807889
O       3.23235800     0.73653202     0.32648098     1.07444153     0.44213812    -0.73942692
O       1.24795802     4.76592298     8.02746198     0.45848083    -0.59457117     1.19754368
O       4.00633899     0.64508501     5.09843299     0.94742796    -1.18703712    -1.76031903
O       0.83210498     4.83199399     4.40858303     0.16346874     0.11557036     1.08363759
O       0.07537500     3.96583402     2.31443301    -0.76140292    -2.26020595    -1.81857716
O       4.65623798     0.95149499     7.32634700     0.06741126    -0.09045093     1.23283285
O       2.43301602     2.36177300     2.04280897     1.56132046     0.59123336    -0.17273500
O       3.22324498     3.40256998     7.58635501    -0.26122958     0.03086096     1.17028432
O       5.13567198     1.07430300     2.40081199    -0.51818032     0.33898362     0.57536914
O       2.09441000     1.23840198     6.64430902    -0.17772809    -0.50129537     1.38634422
O       2.60370400     5.05191100     2.43617002     0.14939503    -1.42016633     1.31802536
