# total energy = -19961.29048756 eV

CRYSTAL
PRIMVEC
        5.46171299     0.00000000     0.00000000
        0.00002718     5.25930323     0.00000000
        0.00000000     0.00000000     9.33310887
PRIMCOORD
24 1
Ti      1.97962440     3.11665818     3.46251691    -0.10289764     0.28754868    -0.52164514
Ti      3.48211577     2.14264495     5.87059229     0.10289764    -0.28754868     0.52164514
Ti      4.71038571     2.14264676     1.20400041    -0.10053608    -0.28764613     0.52212825
Ti      0.75135451     3.11665663     8.12910894     0.10053608     0.28764613    -0.52212825
Ti      1.97961087     0.48700667     1.20403785    -0.10302157     0.27855959     0.52159963
Ti      3.48212936     4.77229662     8.12907150     0.10302157    -0.27855959    -0.52159963
Ti      0.75134092     0.48700475     5.87055490     0.10018101     0.27850046     0.52189274
Ti      4.71039925     4.77229859     3.46255435    -0.10018101    -0.27850046    -0.52189274
O       1.72867623     1.85189001     4.76261414     0.35494889    -0.07686059     0.25519134
O       3.73306399     3.40741312     4.57049505    -0.35494889     0.07686059    -0.25519134
O       1.00223141     1.85191128     0.09608959    -0.35562946    -0.07625561     0.25472314
O       4.45950887     3.40739190     9.23701939     0.35562946     0.07625561    -0.25472314
O       3.73305040     0.77776145     0.09605933    -0.35533533     0.07652943     0.25526564
O       1.72868982     4.48154168     9.23704965     0.35533533    -0.07652943    -0.25526564
O       4.45949528     0.77774023     4.76264445     0.35501934     0.07692512     0.25506741
O       1.00224484     4.48156295     4.57046479    -0.35501934    -0.07692512    -0.25506741
O       0.19845329     3.19900638     2.52110561     0.22945227    -0.13544397     0.20280149
O       5.26328693     2.06029680     6.81200358    -0.22945227     0.13544397    -0.20280149
O       2.92931462     2.06024785     2.14547866     0.22916714     0.13580161    -0.20362090
O       2.53242555     3.19905533     7.18763042    -0.22916714    -0.13580161     0.20362090
O       0.19843970     0.56935471     2.14544883     0.22893882    -0.13570596    -0.20339953
O       5.26330047     4.68994847     7.18766021    -0.22893882     0.13570596     0.20339953
O       2.53241201     0.56940366     6.81203337    -0.22950061    -0.13530590    -0.20285240
O       2.92932821     4.68989947     2.52107583     0.22950061     0.13530590     0.20285240
