# total energy = -19074.29455269 eV

CRYSTAL
PRIMVEC
        7.60600008     0.00000000     0.00000000
        0.00000000     7.60600008     0.00000000
       -1.89786986    -1.89786986     4.85670466
PRIMCOORD
22 1
Ti      3.76974300     6.54121698     1.36552798     1.62865433     1.00693205    -1.24704823
Ti      3.73073798     2.84157700     1.17032602    -0.55238552    -1.84203155     0.95438613
Ti     -0.04486201     6.67934801     1.03261998    -0.08800092    -0.81578511     2.05083811
Ti     -0.15185397     2.83728500     1.04902098     0.12063158     1.17335833     0.12544057
Ti      5.64486120     3.06854922     3.54436080    -0.56099332    -1.85366888    -0.79603826
Ti     -1.30165877    -0.75553377     3.85402379    -0.88187817     0.45934883    -2.64785003
Ti      1.77732625     2.76978024     3.68431479     0.65547086    -1.39968877    -0.92355191
Ti      1.90952420    -1.13561777     3.76292180    -0.89139563     0.56394546     1.06316415
O       3.76526298     4.60819900     0.76303301    -0.87039022     1.57315474     0.85251462
O       3.90106198     0.88316000     0.79983601    -0.06996257    -1.64263574     1.57330155
O      -0.06141102     4.82483200     0.61142499     0.37305307     0.52523415     1.17766699
O       7.27826400     0.94821599     0.56895900    -0.20105494     0.84154089     2.07546569
O       5.62316822     4.87200423     4.03040079     0.83092968     0.74586085    -1.51194600
O       5.48502221     1.08785020     3.92143182     1.16429519    -1.72906495     0.36523408
O       2.05031922     4.49716222     4.28518879    -0.54658331     2.86029625    -1.14405983
O       2.13583124     0.81619622     4.13491282    -0.62112785     0.10663140    -1.55862954
O       3.65237524     2.91180724     3.15588680     0.29028742    -0.05104490    -0.66230356
O      -0.08199776     2.75524724     3.10299183     0.84196898     0.37407534     0.56577017
O       5.81891501     6.71448898     1.98985098     0.03034186    -0.49565925     0.09837559
O       5.67178400     3.19604601     1.57755099    -0.67438775    -0.87786288     0.34480100
O       1.98447602     6.59331998     1.89646098    -0.71854750     0.07713544    -1.21534549
O       1.72071201     2.61246601     1.29344901     0.74107474     0.39992779     0.45981497
