# total energy = -19960.12996628 eV

CRYSTAL
PRIMVEC
        5.93400000     0.00000000     0.00000000
        0.00000000     9.29699974     0.00000000
        0.00000000     0.00000000     4.64899994
PRIMCOORD
24 1
Ti      4.44260298     6.86160602     2.17455998    -0.72449523     2.34115305     1.28845766
Ti      4.44900100     2.51670699     2.30497000     1.35369789    -3.11220455    -0.10060036
Ti      1.47590800     6.90853500     2.24724798     0.72207376     2.21310743     1.26916255
Ti      1.49479402     2.32798498     2.43900298    -0.90687007    -2.13971810     0.71397427
Ti      3.04142201     4.63793300     0.05320798    -2.97266276     0.25713201    -0.32723471
Ti      2.97113399     0.06353799     0.08744702     0.46255860    -0.45927401    -1.14161085
Ti      5.91256499     4.64469498     4.53676399     2.43885758    -0.39755775     0.02603474
Ti      5.91450802     9.28742502     0.14486598    -0.45826048     0.12311218    -1.97039443
O       4.47448602     5.57323003     0.80822998     0.34595723    -0.24764823     0.02444914
O       4.49022301     0.87080202     1.09278298    -0.73156345     0.33198611    -0.20998773
O       1.47740398     5.54275899     0.84780800    -0.25990263    -0.66155537    -0.64807533
O       1.42673098     0.76016402     1.02987900     1.02721909     1.34521401     0.62038891
O       4.49605200     8.53168498     3.78995000    -0.70370245    -0.94004374    -0.80978878
O       4.33869702     3.78938299     3.71706102     1.11131167     0.10773518     0.18735353
O       1.44910300     8.33149400     3.67218901     0.37533723     0.08642921     0.00132875
O       1.53874801     3.72412802     3.73197101    -0.66019809     1.05444528     0.49761355
O       3.00177197     6.00909899     3.18517798     0.42730619     0.25463367    -0.38370695
O       2.88740799     1.47682999     3.44293302    -0.05132927     0.69513374    -1.19619822
O       0.02967002     5.97782800     3.04716602    -0.74327843    -0.67320967     1.09433750
O       5.89695500     1.56078798     3.28728199     0.15248010     0.36051199    -0.02998087
O       3.00797398     7.83302802     1.29378900     0.26041814    -1.24477769     1.24726857
O       2.93467198     3.12587901     1.42647401    -0.10420171     1.45517654    -1.11724707
O       0.04746402     7.83090502     1.30239099    -0.61064443    -1.43220604     1.32365042
O       5.86600501     3.25933598     1.36760198     0.24989127     0.68242477    -0.35919353
