# total energy = -19960.27668727 eV

CRYSTAL
PRIMVEC
        7.60600008     0.00000000     0.00000000
        0.00000000     7.60600008     0.00000000
       -1.89786986    -1.89786986     4.85670466
PRIMCOORD
24 1
Ti      3.74982000     6.53835699     1.27568903    -0.13161379    -0.23431526    -0.70844151
Ti      3.73525699     2.77531602     1.26048201     0.05637377     0.42285792    -0.59667870
Ti      0.06522898     6.74781101     1.17235299    -0.57704267    -0.54385691     0.64562378
Ti     -0.03966099     2.94079398     1.12172898     0.75259380     0.86057606     0.32956258
Ti      5.72969324     3.04549921     3.57686482     0.70901307    -0.88380573     1.06650813
Ti      5.71048723    -0.91142875     3.57451580     1.85036090     0.50440358     0.64869291
Ti      1.85901222     2.73618823     3.62648879    -0.84659465     0.09049207     0.00173370
Ti      1.90817723    -1.11505076     3.67868382    -1.51907567     0.33726715    -0.19932150
O       3.53442401     4.72795398     0.78765102     1.22697691    -0.72993054    -0.22472761
O       3.68005301     0.90934501     1.05269500     0.74980544    -1.02101167    -1.28740814
O       0.12628799     4.83454499     0.77439201    -0.55009621    -0.16832016    -0.11599433
O       0.15304801     1.05723100     0.69006798    -0.84966044    -0.45557959     0.49179822
O      -1.44728676     4.79342422     4.16309082    -1.51716611     0.92549258    -1.22626163
O       5.74556422     1.08052020     4.06778182    -0.74048956    -0.86878611    -1.05273549
O       1.57743621     4.59379120     4.13366782     1.38060012     2.32295349     0.12768694
O       1.95552224     0.80555325     4.01264081     0.26640007     0.36209888     0.61340425
O       3.73444820     2.94689920     3.14879080     0.99454832     0.06061044     1.37849541
O       3.84519124     6.31476521     3.22196681    -0.55991860     0.22910929     0.43942586
O      -0.05663477     2.89381320     3.21741281     1.64684489    -1.13894796    -0.61340502
O      -0.01356477    -0.91791880     3.17538482     0.54274182     0.35986922     0.88290944
O       5.80478899     6.60497998     1.61886201    -2.01691676     0.30926269    -0.55425754
O       5.78205099     3.18156201     1.66654903    -1.59845620    -0.65987619    -0.97566562
O       1.81637202     6.56139599     1.74586799     2.54812719     0.24092068     0.59878495
O       1.95372098     2.89746003     1.61075199    -1.81735538    -0.32148340     0.33027041
