# total energy = -19069.76338951 eV

CRYSTAL
PRIMVEC
        5.93400000     0.00000000     0.00000000
        0.00000000     9.29699974     0.00000000
        0.00000000     0.00000000     4.64899994
PRIMCOORD
22 1
Ti      4.14747199     7.41234799     2.13893497    -1.08238110    -1.34298847     1.66913534
Ti      4.46411102     2.01770697     2.39448202    -0.29698412     2.24041282    -2.52003299
Ti      1.40882103     6.88237300     2.62493501     0.82319812    -0.95147436     2.01609478
Ti      1.60205100     2.74428798     2.02728598     0.36609669     0.54033578    -0.96624509
Ti      3.12811098     4.52357202     4.43234599    -0.69628868    -0.36909434     0.19401475
Ti      2.95491301     0.21333199     0.01510399    -4.02222139     0.81734551    -1.90720801
Ti      5.81960199     4.59499301     0.00463702     3.91248538    -2.36291564    -0.72042003
Ti      0.14340301     8.75682302     0.27490203     0.20038877     2.95042990    -4.79687398
O       4.56928601     5.55655602     0.53671300    -4.26611710     2.67177724     2.97996675
O       4.33808497     0.38561601     0.97534299     4.93371020     2.27600024     4.19967309
O       1.34656898     1.01757700     0.98284202     0.19912353    -1.12051905    -0.98213220
O       4.36457897     8.27429899     3.82567201     0.24909037     0.87069875    -1.59090178
O       4.55379598     3.62038499     3.63087498    -0.17323097    -0.73713195     0.31725574
O       1.70777701     8.45867699     3.84419998    -1.44627615    -0.56556809    -0.99955349
O       1.40580599     3.93716198     3.55685298     0.76680635    -0.02068170    -0.47426201
O       3.12484701     5.92980098     2.99167998    -0.60739481     1.36093400    -0.44802903
O       2.84549201     1.49688898     3.05402802     0.18324953    -0.65839651     1.92819233
O       0.20822299     6.63096999     3.99634098     1.91839128    -1.23509620    -1.80390464
O       2.55130000     8.06862102     1.53851300     1.03113205    -1.03358308    -0.11576473
O       3.36259900     3.52264299     1.57982502    -1.87196768    -1.45273553    -1.76604976
O       0.03225801     7.67989900     1.53133699    -0.44488097    -2.40387513     3.84843687
O       5.83363598     2.95352800     1.08902799     0.32407122     0.52612581     1.93860787
