# total energy = -19905.83145152 eV

CRYSTAL
PRIMVEC
        8.33296178     0.00000000     0.00000000
        0.00002729     3.80091043     0.00000000
        0.00000000     0.00000000    12.68211653
PRIMCOORD
24 1
Ti      3.02031389     2.25241602     4.70497478     0.11848573    -0.19771842     2.67529400
Ti      5.31267481     1.54849447     7.97714193    -0.11848573     0.19771842    -2.67529400
Ti      7.18665215     1.54849577     1.63603285     0.11804016     0.19806886    -2.67585064
Ti      1.14633655     2.25241484    11.04608398    -0.11804016    -0.19806886     2.67585064
Ti      3.02030043     0.35196086     1.63608373     0.11848573    -0.19771842    -2.67529400
Ti      5.31268827     3.44894969    11.04603311    -0.11848573     0.19771842     2.67529400
Ti      1.14632309     0.35195945     7.97709105    -0.11804016    -0.19806886    -2.67585064
Ti      7.18666561     3.44895110     4.70502566     0.11804016     0.19806886     2.67585064
O       2.63744453     1.33836516     6.47158704     1.90629064     0.82550491    -1.97003165
O       5.69554417     2.46254526     6.21052967    -1.90629064    -0.82550491     1.97003165
O       1.52910410     1.33838050     0.13056949    -1.90562189     0.82564247    -1.97024557
O       6.80388466     2.46252999    12.55154686     1.90562189    -0.82564247     1.97024557
O       5.69553077     0.56209005     0.13052835    -1.90629064    -0.82550491    -1.97003165
O       2.63745793     3.23882044    12.55158800     1.90629064     0.82550491     1.97003165
O       6.80387125     0.56207472     6.47162818     1.90562189    -0.82564247    -1.97024557
O       1.52911738     3.23883577     6.21048854    -1.90562189     0.82564247     1.97024557
O       0.30277225     2.31192917     3.42575609    -1.83321626     0.51711100     0.12100387
O       8.03021645     1.48898126     9.25636062     1.83321626    -0.51711100    -0.12100387
O       4.46926373     1.48894585     2.91534258    -1.83278354    -0.51707372    -0.12111135
O       3.86372497     2.31196464     9.76677395     1.83278354     0.51707372     0.12111135
O       0.30275885     0.41147395     2.91530211    -1.83321626     0.51711100    -0.12100387
O       8.03022985     3.38943653     9.76681442     1.83321626    -0.51711100     0.12100387
O       3.86371156     0.41150937     9.25640103     1.83278354     0.51707372    -0.12111135
O       4.46927714     3.38940112     3.42571563    -1.83278354    -0.51707372     0.12111135
