# total energy = -19922.43652176 eV

CRYSTAL
PRIMVEC
        5.93400000     0.00000000     0.00000000
        0.00000000     9.29699974     0.00000000
        0.00000000     0.00000000     4.64899994
PRIMCOORD
24 1
Ti      4.30105500     5.38396401     2.20017502     4.42896749    13.69110807     2.21193630
Ti      4.49030498     2.75105700     2.29575300     3.80500835    -3.93260736     0.00129558
Ti      1.52813801     5.51443499     2.38407401    -4.61821027     4.18767786     1.06978474
Ti      1.42206601     2.56741202     2.11762199     0.76123888    -0.30107192    -0.72459602
Ti      2.76650998     4.49088501     0.18430497     1.10973276     3.00891789    -2.94968608
Ti      2.99210099     1.58321700     4.35676101     0.09816707   -10.24133838     1.70881802
Ti      0.13940598     4.08661402     0.03081399    -1.33823475     3.06855414     0.42826830
Ti      0.07634699     1.48864498     4.52824201     0.00563380    -5.92643381    -1.46568130
O       4.44146901     5.53671701     0.25263901    -0.19826144    -3.45594831     2.87211561
O       4.34460999     1.24655798     1.11402998    -0.55406857    -2.96700864    -2.27407346
O       1.29750801     5.58223699     0.44301799    -1.50252676    -2.84684500     0.17756508
O       1.44012800     1.11389499     1.17426501     0.82558693    -1.00763241    -2.01297860
O       4.48651300     0.52473698     3.93562498     1.74330244    -3.10067392     1.68187799
O       4.46791798     2.75941700     4.24182700     0.68960355     6.46278567    -0.74247188
O       1.69423299     0.07985899     3.89731297     0.15993270     2.74928806     0.32881516
O       1.70839001     2.75925300     4.04372097    -2.78516216     5.48942813    -0.44814242
O       2.84610898     5.97510998     3.69408901     0.37239615    -1.07949015    -2.94191698
O       3.29604300     1.32302801     2.40764102    -3.12299418     1.79236579     2.01558956
O       0.00305102     5.77548998     3.75583601     0.80421617     1.14217572    -3.84483809
O       5.84024398     1.57258699     2.56151000     2.41606757     1.01924378     2.74501437
O       2.73349901     6.43511303     1.55294203     3.23329095     1.73522814    -0.40627790
O       3.34699499     4.00369702     1.91115698    -7.46806218    -2.82745991     0.17760776
O       5.84975498     6.76319302     1.70839398    -0.17269412    -0.53863886     2.28333226
O       5.85396602     4.40734200     1.96225798     1.30706911    -6.12162458     0.10864175
