# total energy = -4986.73974237 eV

CRYSTAL
PRIMVEC
        4.54856515     0.00000000     0.00000000
       -0.00000780     3.36198313     0.00000000
       -2.27431041    -1.68103554     5.16399982
PRIMCOORD
6 1
Ti     -0.00019643     2.52161115     1.29099965    -0.00304856    -0.00403946     6.57159145
Ti      2.27444315    -0.84066356     3.87299939     0.00304856     0.00403946    -6.57159145
O       0.00004744     0.84048782     0.84117323     0.00134880     0.00367771    -1.94507163
O       2.27419911     0.84045971     4.32282582    -0.00134880    -0.00367771     1.94507163
O      -0.00002036    -0.84048459     3.42317297    -0.00229240    -0.00021829    -1.61323619
O       2.27426686     2.52143201     1.74082613     0.00229240     0.00021829     1.61323619
