# total energy = -19517.48302281 eV

CRYSTAL
PRIMVEC
        5.17600016     0.00000000     0.00000000
        0.00000000     5.50899976     0.00000000
        0.00000000     0.00000000     9.26300011
PRIMCOORD
23 1
Ti      1.90229903     3.20470901     3.38685500    -0.81630550    -1.67929788     2.85634780
Ti      3.36647802     2.25670099     5.84190602    -0.39712529     0.30952468    -2.17501190
Ti      4.40678398     2.06955899     1.46507299     0.43781455    -0.80250510    -0.81424888
Ti      0.78033298     3.46542999     7.78439600     0.35532273    -0.08509789    -0.21125708
Ti      2.03449899     0.23440398     1.37356703    -0.35719424     0.48058410    -1.52165835
Ti      3.16566002     5.22886200     7.88813601    -0.20281975     1.03114079     0.46513305
Ti      0.71105902     0.51156798     5.93588297     0.05745389     0.62644875    -3.13368663
Ti      4.52810199     4.95602901     3.34148599     0.21260074    -0.06520526     3.27669993
O       1.68909399     1.88879601     4.76997399    -0.23775077     0.54473212    -0.35646405
O       3.48798098     3.55974298     4.42068600     0.52423887    -0.09250138     0.73961667
O       0.17744001     2.76969801     0.03433101    -0.78290095    -0.60711790     0.15473882
O       3.47314899     0.85801598     0.21466901    -0.69133596    -0.05199930    -0.66469701
O       1.88609800     4.53693899     9.07224298    -0.17272626     0.69555540     1.07020666
O       4.27355001     0.69394198     4.89619700    -1.20515543     0.83301742    -1.00288821
O       0.85504698     4.73146000     4.52532201     1.26503259    -1.24133729    -0.56923191
O       0.16019899     3.35364500     2.48171800     0.65067626    -0.04032545     0.71778516
O       5.01706997     2.07572999     6.76599200    -0.04681441     1.41434406     0.43775542
O       2.78673302     1.68767600     2.44365503    -0.64607835     0.88929529    -0.49615213
O       2.55143700     3.64936899     6.97672298     0.20387262    -0.71352947    -0.39122717
O       0.14764500     0.44029600     1.90306898     1.11711466     0.91716400    -0.10536822
O       4.97336898     5.02996602     7.24033299    -0.39055226    -1.74395267     1.36036733
O       2.27946598     1.02374398     6.91058101     0.76981660    -0.65282956     1.44164199
O       2.84697202     4.52101202     2.39339499     0.35281539     0.03389307    -1.07840154
