# total energy = -19923.55578485 eV

CRYSTAL
PRIMVEC
        6.98726593     0.00000000     0.00000000
        0.00002339     3.58056779     0.00000000
        0.00000000     0.00000000    10.55664851
PRIMCOORD
24 1
Ti      2.53256181     2.12184123     3.91644130    -0.35576008     0.85532895     0.26650343
Ti      4.45472767     1.45872673     6.64020731     0.35576008    -0.85532895    -0.26650343
Ti      6.02607517     1.45872800     1.36184083    -0.35458534    -0.85545442    -0.26480624
Ti      0.96121436     2.12184011     9.19480794     0.35458534     0.85545442     0.26480624
Ti      2.53255017     0.33155738     1.36188316    -0.35576008     0.85532895    -0.26650343
Ti      4.45473937     3.24901068     9.19476561     0.35576008    -0.85532895     0.26650343
Ti      0.96120267     0.33155601     6.64016498     0.35458534     0.85545442    -0.26480624
Ti      6.02608681     3.24901205     3.91648364    -0.35458534    -0.85545442     0.26480624
O       2.21152210     1.26077884     5.38697694     3.81742061    -0.69266728     1.43700706
O       4.77576743     2.31978911     5.16967168    -3.81742061     0.69266728    -1.43700706
O       1.28216837     1.26079325     0.10868660    -3.81688685    -0.69285728     1.43656997
O       5.70512122     2.31977470    10.44796169     3.81688685     0.69285728    -1.43656997
O       4.77575574     0.52950522     0.10865237    -3.81742061     0.69266728     1.43700706
O       2.21153375     3.05106274    10.44799598     3.81742061    -0.69266728    -1.43700706
O       5.70510958     0.52949081     5.38701118     3.81688685     0.69285728     1.43656997
O       1.28217985     3.05107720     5.16963744    -3.81688685    -0.69285728    -1.43656997
O       0.25387786     2.17790434     2.85161412     0.39657790    -0.11765912     0.84122207
O       6.73341162     1.40266367     7.70503449    -0.39657790     0.11765912    -0.84122207
O       3.74751957     1.40263024     2.42674374     0.39769736     0.11790004    -0.84119122
O       3.23976991     2.17793776     8.12990472    -0.39769736    -0.11790004     0.84119122
O       0.25386622     0.38762039     2.42671003     0.39657790    -0.11765912    -0.84122207
O       6.73342332     3.19294756     8.12993843    -0.39657790     0.11765912     0.84122207
O       3.23975827     0.38765381     7.70506815    -0.39769736    -0.11790004    -0.84119122
O       3.74753127     3.19291414     2.85158041     0.39769736     0.11790004     0.84119122
