# total energy = -4986.46354819 eV

CRYSTAL
PRIMVEC
        3.58984316     0.00000000     0.00000000
        0.00000000     4.60206499     0.00000000
        0.00000000    -0.00006758     5.16505619
PRIMCOORD
6 1
Ti      1.79492158     2.30099865     2.58252821     0.00000000     0.00000000     0.00000000
Ti      0.00000000     0.00000000     0.00000000     0.00000000     0.00000000     0.00000000
O       1.79492158     0.89686150     1.00659344     0.00000000     0.19094845     0.16321729
O       1.79492158     3.70513580     4.15846298     0.00000000    -0.19094845    -0.16321729
O       0.00000000     1.40410980     3.58912258     0.00000000    -0.19135288     0.16381867
O       0.00000000     3.19788749     1.57593384     0.00000000     0.19135288    -0.16381867
