# total energy = -39035.40610042 eV

CRYSTAL
PRIMVEC
        5.93200024     0.00000000     0.00000000
        0.00000000     9.29399984     0.00000000
        0.00000000     0.00000000     9.29399984
PRIMCOORD
46 1
Ti      4.53010699     6.98697198     6.97650898     0.86022073    -0.74064562     0.45791493
Ti      4.46319502     6.94146199     2.31238001    -0.43957910     0.48499354     0.41816463
Ti      4.45290501     2.33055000     6.93347798     0.70472627     0.01536749     0.49116136
Ti      4.24146298     2.45787301     2.13578700     0.06297097    -0.47585121     1.14125090
Ti      1.62994700     6.99446301     6.90526801    -1.39896809    -0.24941998     0.15436832
Ti      1.47504200     6.97668202     2.35081199     0.43541211    -0.10967687    -0.24749885
Ti      1.53263702     2.36030400     6.94448402    -0.45480132    -0.25168307     0.55362839
Ti      1.23593400     2.02898798     2.48338698     0.94821960     0.37081980    -0.24038641
Ti      2.92196098     4.62677302     4.76674998     0.72451143     0.42264427    -2.18914912
Ti      2.94649899     4.85405798     9.09298302    -0.44288065    -1.18410889    -0.21876728
Ti      2.99473497     9.24182402     4.60676297     0.33131350     0.45072664    -0.54922846
Ti      2.91793998     9.17822501     9.13634100     0.39528258     0.13157342     1.30858709
Ti      0.00882001     4.64389698     4.71387898    -0.63433561     0.08911421    -1.24755551
Ti      5.90152598     4.74097201     0.04535001     0.80516259    -0.39526766    -1.43486250
Ti      0.01916601     9.09331000     4.83348801    -0.38201156     0.66668087    -0.72858791
Ti      5.87766300     0.16237000     9.25390900    -0.13715246    -0.26589022     1.19832632
O       4.64216901     5.51464502     5.75573601    -1.07326139     0.30568731    -1.00765375
O       4.42402299     5.63084399     0.69646399     0.10033502     0.17723186     2.17292622
O       4.47913902     0.94850402     5.51005700     0.50982064    -0.41777099    -0.59304496
O       4.39112700     0.88251499     0.87949598     0.36883466     1.14309772     0.41820705
O       1.48134900     5.56489601     5.54759901    -0.28003309     0.76238996     0.57946310
O       1.53243598     5.69396197     0.79329200    -0.05585312    -0.71793249     0.40785553
O       1.49256502     0.82965198     5.65454102    -0.24151178     0.62441680    -0.75993662
O       1.55848098     0.79684299     0.87177703    -0.61338651     0.80387498     0.70920153
O       4.54197702     8.38552299     8.48907700    -0.36949440    -0.76353565    -1.00673510
O       4.48816202     8.15642798     3.87635999     0.10823860     1.96668562     0.53342748
O       4.47081099     3.86455002     8.25565798     0.06449563    -0.69606782     1.09007384
O       4.28901701     3.87359102     3.62487602     0.83079650    -0.91435919    -0.16266553
O       1.53380401     8.26646198     8.29135998    -0.25693609     1.14578350     1.11947416
O       1.54337699     8.25203200     3.79818098    -0.63872114     1.58131979     0.79791002
O       1.55141001     3.69915202     8.50073203     0.00509773    -0.09977529    -0.48245817
O       1.48170101     3.74694101     3.85396701     0.13709718    -1.17643877    -0.87014982
O       3.07473102     6.07148703     7.72907200    -1.26215295    -0.21630262     0.49179591
O       2.99753400     6.12652897     3.28076099    -0.17724060    -0.83608321     0.10435495
O       3.03966599     1.40685402     7.83753497    -0.38462921    -0.18772711     0.11108121
O       2.89113101     1.41284298     3.17900201     0.66254885     0.22780548    -0.10738936
O       0.05153102     6.09625099     7.94090800     0.17431700    -0.15670468    -0.15418629
O       0.03843002     6.08384300     3.22976699     0.05807481    -1.35879947     0.26567682
O       0.01368902     1.49862198     7.93221902     0.28869874    -0.31840116    -0.12787361
O       2.96471702     7.99199499     6.06032800     0.80168646    -0.78685402     0.45347926
O       3.05275302     7.89550602     1.47789702    -0.43245226     0.22767641    -0.81204184
O       3.06580200     3.30700099     6.09655002    -1.03146501    -0.41032739     0.10141514
O       5.92048900     7.92103100     6.20388199     1.03112768     0.31621547    -0.64870448
O       0.01393699     7.94533399     1.60441002     0.06650469     0.41045620    -1.15579769
O       0.02603600     3.24722200     6.06359599     0.51088790    -0.44731349    -0.08069462
O       0.00723200     3.04593600     1.50233400    -0.27951553     0.85237475    -0.25437630
