# total energy = -4985.56590342 eV

CRYSTAL
PRIMVEC
        3.19303212     0.00000000     0.00000000
        2.14286858     4.52085727     0.00000000
       -0.00001400    -0.00006723     5.14125428
PRIMCOORD
6 1
Ti      2.66794324     2.26039504     2.57062703     0.00000000     0.00000000     0.00000000
Ti      0.00000000     0.00000000     0.00000000     0.00000000     0.00000000     0.00000000
O       2.01412678     0.88103545     1.00195471    -1.06632661     0.87731780     0.53248569
O       3.32175964     3.63975465     4.13929935     1.06632661    -0.87731780    -0.53248569
O       0.65381060     1.37933246     3.57258280     1.06599159    -0.87793950     0.53341103
O       1.48904384     3.14145749     1.56867126    -1.06599159     0.87793950    -0.53341103
