# total energy = -4983.19778242 eV

CRYSTAL
PRIMVEC
        4.23660839     0.00000000     0.00000000
        0.00000000     2.84491290     0.00000000
        0.00000000    -0.00009118     5.64466888
PRIMCOORD
6 1
Ti      2.11830419     1.42241081     2.82233433     0.00000000     0.00000000     0.00000000
Ti      0.00000000     0.00000000     0.00000000     0.00000000     0.00000000     0.00000000
O       2.11830419     0.55441385     1.10006281    -0.00000000    -0.50155454     1.76718594
O       2.11830419     2.29040783     4.54460585    -0.00000000     0.50155454    -1.76718594
O       0.00000000     0.86796081     3.92239822     0.00000000     0.50214100     1.76697896
O       0.00000000     1.97686081     1.72227039     0.00000000    -0.50214100    -1.76697896
