# total energy = -19961.17030054 eV

CRYSTAL
PRIMVEC
        7.60600008     0.00000000     0.00000000
        0.00000000     7.60600008     0.00000000
       -1.89786986    -1.89786986     4.85670466
PRIMCOORD
24 1
Ti      3.82968899     6.63000102     1.13363700     0.35076082     0.15787531     0.52948881
Ti      3.83627598     2.72030201     1.20739701    -1.20131523     0.01981267     0.43003516
Ti     -0.01058799     6.66968402     1.21732898    -0.36202277     1.06416251     0.21724441
Ti     -0.07661100     2.92327102     1.31280599     1.04070376    -1.22683112    -1.17032597
Ti      5.63067825     2.96708425     3.64133983     0.28234966    -1.84901492     0.25867801
Ti      5.66233125    -0.91546775     3.66529479     0.08559797     1.72456757     0.17437742
Ti      1.92980820     2.77707421     3.72035282    -0.18653052    -0.10059831    -1.14560557
Ti      1.94837322    -0.96950977     3.59318079     0.09718465    -0.01738221     0.01173555
O       3.88712499     4.63155001     0.80036101    -0.25617839     1.60410363    -0.06343248
O       4.07420799     0.87378700     0.72071798    -0.99571380    -0.23647319    -0.22918025
O      -0.16092799     4.80686802     0.77903601     0.42498860     0.03716634     0.69300435
O      -0.18241301     1.03398298     0.76408999     0.60609280    -0.38686735    -0.11913519
O       5.58725222     4.85599324     4.04529983     0.44928039    -0.60934653     0.01420381
O       5.57864621     1.09849720     4.01777483     0.45474501    -1.11433786     0.85357854
O       2.04339022     4.75975023     3.95559682    -0.62211284    -0.82088104     0.59162905
O       2.05676221     0.90838921     4.13934881    -0.56360659    -0.12924709    -0.94075543
O       3.80227121     2.87175524     3.22305183    -1.03232221     0.23884657    -0.27416892
O       3.79605221    -0.86836976     3.18351584    -0.18430471    -0.25295088    -0.90261284
O      -0.02154476     2.80950024     3.31918381     0.57810942     0.78360851    -0.66618413
O       0.04515422    -0.88570375     3.16862384     0.34706743    -0.13829352     0.40146659
O       5.72751499     6.71767902     1.70222198    -0.46877810    -0.53605207    -0.56613784
O       5.66038398     2.66593598     1.65261902     0.89040832     1.11212029     0.51746736
O       1.93176197     6.71294098     1.43780999     0.20907524    -0.20647714     0.63891577
O       1.87621598     2.55227998     1.56639001     0.05652058     0.88248984     0.74571301
