# total energy = -19517.02536046 eV

CRYSTAL
PRIMVEC
        5.17600016     0.00000000     0.00000000
        0.00000000     5.50899976     0.00000000
        0.00000000     0.00000000     9.26300011
PRIMCOORD
23 1
Ti      1.77118002     3.27672797     3.48320997     0.19821362    -1.27909627     2.63181174
Ti      3.40179198     2.29105401     5.79797002    -0.21595038     0.13558409    -2.29393652
Ti      4.39071700     2.02891299     1.59539998     0.07851972    -1.29838675    -1.56014649
Ti      1.06885798     3.29091702     7.84601700    -2.85194813    -0.51559559     1.34789413
Ti      2.00327901     0.29223999     1.27244803    -1.25002248     0.85035078    -1.18899758
Ti      3.34342701     5.37755203     7.81595798     0.30748168    -1.27037997     1.43580995
Ti      0.64122000     0.45958399     5.94827398    -0.00336120     1.00040196    -2.94566076
Ti      4.40579902     4.89852300     3.30613002    -0.05776808     0.79934470     3.59417087
O       1.49814302     2.11484799     4.89844701     0.62524264     0.01107452    -0.87144771
O       3.38015900     3.66561197     4.55138002     0.57281911     0.42784407    -0.42273888
O       0.23093300     2.47973798     0.13174799     1.01537787     0.65978594    -0.40205898
O       3.42951499     0.89304302     0.20771101     0.44043965     0.06942418    -1.08515532
O       1.82378902     4.80865701     8.82374198    -0.82301274     0.12068917     1.59024332
O       4.31944799     0.81404802     4.60189899    -1.32071319     0.64481491     0.78135983
O       0.88951198     4.81870503     4.43799401     0.91308777    -0.91690304     0.15844326
O       0.04286299     3.26602801     2.69037201    -0.04206609    -0.00464470    -0.42099722
O       4.93866602     2.01854599     6.76017301     1.00050171    -0.13480530     1.24175741
O       2.52129898     1.81050799     2.29089002     0.26042714     1.26849510     0.22069766
O       2.72407002     3.47241301     7.19789700     1.48276886     0.37507935    -0.77929857
O       0.13227902     0.43219202     2.08219098     1.04447634     1.00066035    -1.65558793
O       5.08801000     4.69144298     7.18989198    -0.35635632     0.46911697     0.16546598
O       2.42512102     0.99967398     6.77705699    -1.48482677    -1.18446858     0.27054469
O       2.76932399     4.56973702     2.26357199     0.46667005    -1.22838587     0.18782610
