# total energy = -19940.65719775 eV

CRYSTAL
PRIMVEC
        4.68990852     0.00000000     0.00000000
        0.49792895     4.96658315     0.00000000
        0.00000000     0.00000000     8.40444132
PRIMCOORD
24 1
Ti      1.99493855     2.94319260     3.11798786     1.35711951     0.57298007    -0.58355579
Ti      3.19289906     2.02339059     5.28645375    -1.35711951    -0.57298007     0.58355579
Ti      4.24760016     2.02339227     1.08419937    -1.87739143    -0.98697694     1.95917516
Ti      0.94023746     2.94319115     7.32024238     1.87739143     0.98697694    -1.95917516
Ti      1.74597417     0.45990107     1.08423309     1.35724010     0.57362078     0.58281094
Ti      3.44186344     4.50668231     7.32020867    -1.35724010    -0.57362078    -0.58281094
Ti      0.69127302     0.45989924     5.28642008     1.87731764     0.98696819     1.96037201
Ti      4.49656455     4.50668409     3.11802158    -1.87731764    -0.98696819    -1.96037201
O       1.65971496     1.74881837     4.28872219    -2.44415945    -1.93693254    -0.49513037
O       3.52812265     3.21776487     4.11571943     2.44415945     1.93693254     0.49513037
O       1.03592731     1.74883845     0.08652844     2.26183963    -1.96352830    -0.31584009
O       4.15191035     3.21774483     8.31791298    -2.26183963     1.96352830     0.31584009
O       3.27915827     0.73447315     0.08650119     2.44252294     1.93586965    -0.49507818
O       1.90867934     4.23211009     8.31794023    -2.44252294    -1.93586965     0.49507818
O       3.90294597     0.73445310     4.28874948    -2.26324628     1.96431557    -0.31654457
O       1.28489159     4.23213013     4.11569218     2.26324628    -1.96431557     0.31654457
O       0.47326382     3.02095752     2.27024933    -1.16127568    -0.66057115    -1.69777487
O       4.71457374     1.94562571     6.13419228     1.16127568     0.66057115     1.69777487
O       2.71041457     1.94557946     1.93199820    -0.20046616    -1.66601479    -0.73087774
O       2.47742303     3.02100373     6.47244332     0.20046616     1.66601479     0.73087774
O       0.22429943     0.53766580     1.93197133    -1.16251958    -0.66150961     1.69496336
O       4.96353813     4.42891739     6.47247014     1.16251958     0.66150961    -1.69496336
O       2.22845865     0.53771205     6.13421910     0.19896206     1.66697458    -0.72841411
O       2.95937896     4.42887118     2.27022251    -0.19896206    -1.66697458     0.72841411
