# total energy = -19076.17800498 eV

CRYSTAL
PRIMVEC
        7.60600008     0.00000000     0.00000000
        0.00000000     7.60600008     0.00000000
       -1.89786986    -1.89786986     4.85670466
PRIMCOORD
22 1
Ti      3.83110200     6.62067998     1.21067097     0.08711801    -0.28955055    -0.91608440
Ti      3.74511302     2.78247298     1.24847000     0.45565724     0.94888294    -0.27158701
Ti      0.24458599     6.68083098     0.93436499     0.19759629     0.17754271     1.38008744
Ti     -0.00078398     2.82186298     1.13263299    -0.58702678    -0.00736390     0.27144766
Ti      5.65311224     2.85804320     3.57160681     0.68895203    -0.31442238    -0.15600611
Ti      6.12437321    -0.86982976     3.57674481    -0.40117580    -0.27975387     0.35477971
Ti      1.91047921     2.84813123     3.66445980    -0.87271424    -0.33204601     0.65739661
Ti      1.34716923    -0.95506476     3.94716481     1.31854138    -0.11942239    -2.44413194
O       3.69520198     4.74709099     0.78894301     0.31658262     0.49090194    -0.30617839
O       3.89622499     0.94200398     0.91370898    -1.05560767    -0.69965836     0.86434992
O      -0.07469803     4.83986598     0.66584601     0.22116201    -0.94095777     0.50341550
O      -0.04167001     0.97366503     0.65408599     0.16194716     0.16619874     1.27830103
O       5.77176024     4.84271120     3.88479381     0.18108518    -0.50123855    -0.52958574
O       5.53181122     0.89423325     3.99358079     0.54087417     0.98807505     0.21403233
O       2.05048522     4.88590323     4.09619980    -0.66136537    -1.38918221     0.46556679
O       1.89723723     0.81342423     4.15132081    -0.25667949     1.11619471    -0.64413897
O       3.75966222     2.81445820     3.29180381    -0.19234198     0.05824554     0.01842145
O       0.01860820     2.62292324     3.26554180    -0.72676757     0.83325268    -0.77740675
O       5.66740400     6.72866098     1.79403100    -0.02473814    -0.35018592    -0.57940577
O       5.55749102     2.92284302     1.59778202     2.28683127     0.01084055     0.43707099
O       1.97869799     6.58890098     1.89426601    -0.66391205     0.43682313     0.38103120
O       1.88287901     2.88226798     1.66903701    -1.01401775    -0.00317557    -0.20137556
