# total energy = -19960.32906295 eV

CRYSTAL
PRIMVEC
        5.93400000     0.00000000     0.00000000
        0.00000000     9.29699974     0.00000000
        0.00000000     0.00000000     4.64899994
PRIMCOORD
24 1
Ti      4.44331901     7.02465501     2.31523799     2.01046766     0.36372767    -0.70237294
Ti      4.48790998     2.45484099     2.39910899    -1.64785919    -1.59056677    -1.04804786
Ti      1.53013502     6.83313798     2.23659998    -1.87509800     1.00766995     0.08109725
Ti      1.49875301     2.34924001     2.45026202     1.43124599    -1.84017007    -1.70882804
Ti      2.95469901     4.66308199     4.62170398     0.02826132     0.60567320     0.97648066
Ti      2.97269802     9.21748203     0.01547902    -0.70827593     1.11485723     0.84811006
Ti      5.91184198     4.58691602     4.62068801    -0.01296685     1.53168745     0.45025278
Ti      5.91352000     0.07686098     4.53724300     0.67557329    -0.56034052     2.35409419
O       4.52884797     5.66136698     0.83762700    -0.41771726    -1.38248088    -0.54710833
O       4.47181801     0.72233002     0.95945000    -0.43880237     1.54948746     0.69806762
O       1.48744798     5.62118798     0.76087799    -0.09319790    -0.61919078     0.36843845
O       1.40602602     0.85214497     1.07040402     0.31783912     0.46247067    -0.54932899
O       4.40851598     8.41040798     3.77230501     0.13770011    -1.00736271    -1.26723448
O       4.42146299     3.76931997     3.77666702     0.47053854    -0.17502431    -0.34268113
O       1.45371002     8.38390599     3.89224102     0.44077801    -0.44092559    -1.49867499
O       1.53295998     3.77296198     3.67911197    -0.75845720     0.33590395     1.02651280
O       2.95583500     5.97126599     3.21501098     0.35859318     0.53052317    -0.54482056
O       3.03353298     1.52741801     3.29554203    -0.66461242    -0.46504666     0.15405953
O       0.07004201     6.01350798     3.09080599    -0.70093672    -0.72070311     1.11796441
O       5.89138102     1.50572597     3.32394000    -0.15906290     0.55414133    -0.43655522
O       2.96008101     7.83258902     1.39847101     0.23495341    -0.19860082     0.54708082
O       2.84928002     3.26251898     1.45124300     1.03304187     0.27130342    -0.45563307
O       5.92929398     7.79029098     1.37404799    -0.19984215     0.07606894     0.93086387
O       5.86439801     3.22667802     1.41344498     0.53783641     0.59689750    -0.45173682
