# total energy = -19073.80032775 eV

CRYSTAL
PRIMVEC
        7.60600008     0.00000000     0.00000000
        0.00000000     7.60600008     0.00000000
       -1.89786986    -1.89786986     4.85670466
PRIMCOORD
22 1
Ti      3.75133297     6.59706899     1.29580702     0.34318661     0.53748237    -0.02659653
Ti      3.88701698     2.92248900     1.38880199    -1.46642640    -0.14350026    -0.04335190
Ti      0.11383598     6.61158999     1.10877800    -0.78479379     0.80677570    -0.11571100
Ti     -0.16716699     2.87370002     1.09935600    -0.10749581    -0.40180341    -0.22819603
Ti      5.76589521     2.81636721     3.56748283    -0.76177701    -0.11372816     0.70488953
Ti      5.87101420    -0.91265475     3.69748083    -0.54609994     0.92243322    -0.35005531
Ti      1.97865623     2.83893323     3.80971281    -0.09865147     0.86608696    -1.69012557
Ti      1.68177123    -0.77133077     4.00123582    -0.60480622    -0.01873461    -0.90262672
O       3.69773198     4.74239899     0.81835298    -0.34070832    -0.64607810     2.41135859
O       3.85249701     0.87931399     1.01073903    -0.69341495     1.17145674     0.25341805
O       0.07030501     4.78321200     0.65276898     0.78443358    -0.44097341     1.02336114
O       0.08460798     0.90540201     0.79399501    -0.16192788     0.68239340     0.63278600
O       5.60968621     4.80051424     3.90890884     0.76157364     0.47336855     0.97001459
O       5.00906823     1.02128225     4.06410779     2.09081107    -1.19297894    -0.03721596
O       1.67564923     4.68270023     4.26567082     0.49863710     2.48903730     0.00676612
O       2.36903521     1.04384123     4.30396881    -1.00773115    -2.06220831    -0.84364302
O       3.85084423     3.06190524     3.36314283    -1.85538252     0.58607573    -0.60169493
O       0.21518024     3.18502923     2.96879481    -0.33140761    -1.58415598     0.31359423
O       5.75527197     6.67622200     1.73882702     0.22663923    -0.53686737     0.28152716
O       5.61766202     2.74785098     1.70140498     2.95476916    -0.23135849    -0.75792421
O       1.89283898     6.56296500     2.08224601     0.00974808     0.09814239    -0.57886687
O      -0.08854776    -0.05713077     3.80264481     1.09082435    -1.26086560    -0.42170710
