# total energy = -4990.04119656 eV

CRYSTAL
PRIMVEC
        3.95650986     0.00000000     0.00000000
        0.19769347     3.95156774     0.00000000
       -2.07713679    -1.97581728     5.05096624
PRIMCOORD
6 1
Ti      0.14811027     2.96382585     1.26274142    -0.00014167     0.00014167     0.00000000
Ti      1.92895577    -0.98807588     3.78822454     0.00014167    -0.00014167     0.00000000
O       0.04946499     0.98788547     0.82276110    -0.00028102    -0.00104438    -0.54953905
O       2.02760088     0.98786440     4.22820492     0.00028102     0.00104438     0.54953905
O      -0.04944548    -0.98786691     3.34824422    -0.00104438    -0.00028102    -0.54953905
O       2.12651134     2.96361672     1.70272186     0.00104438     0.00028102     0.54953905
