# total energy = -19517.61910128 eV

CRYSTAL
PRIMVEC
        5.93400000     0.00000000     0.00000000
        0.00000000     9.29699974     0.00000000
        0.00000000     0.00000000     4.64899994
PRIMCOORD
23 1
Ti      4.56193499     7.20462501     2.17410801     0.30002034    -0.57785925     0.43711367
Ti      4.52492899     2.30928502     2.30041802    -0.08615564    -1.04234746    -0.26989214
Ti      1.33152702     7.02833199     2.16294099    -1.69778361     0.48357609     0.59951926
Ti      1.50877398     2.29113000     2.42263499     0.06258350    -0.61603680     0.18124896
Ti      2.98692098     4.46396502     0.20773599    -0.05695510     0.49205662     0.83721938
Ti      2.96207199     9.26936002     0.02197901     0.06669958     0.72656831    -0.40727138
Ti      5.89353599     4.55952501     0.06893502     0.47871233     1.18898859    -0.03029609
Ti      0.04811899     0.03889998     4.53943702    -0.36438485     0.77414017    -0.63971719
O       4.43247898     5.54384201     1.07002000    -0.45807125    -0.19357354    -1.01031485
O       4.47552601     0.98044903     0.81408200    -0.98877182    -0.23121734     0.82339558
O       1.43458503     5.69639503     0.88797800     0.72342719    -1.60839172    -0.58247387
O       1.39054700     0.92842900     0.80959097     1.59471936     0.02880614     0.82100702
O       4.43055002     8.52100100     3.57849802    -0.81558122    -0.82039510     0.45651085
O       4.46752898     3.60393801     3.99304998    -0.63407901     0.33285334    -1.50187576
O       1.41822398     8.31150501     3.72937402     1.13427755     0.02172994    -0.20437809
O       1.52418098     3.70159799     3.89393301     0.08223754     0.38606337    -1.07724892
O       2.95307401     1.38398399     3.21939300     0.35074334    -0.24571219     0.03630528
O       5.81828899     6.15172802     3.18837702    -0.07762678    -0.58700107     0.46101234
O       5.92026701     1.44497299     3.23035802     0.32430056     0.05590146    -0.30232636
O       2.86314701     7.73474901     1.49689999     1.38577961     1.04707264    -0.62840381
O       3.01548899     3.27715698     1.54548301    -0.69410221     0.00933157     0.46912391
O       5.90580401     8.01856302     1.25023100     0.25674146    -1.25161708     1.26954436
O       0.13162702     3.08141802     1.37460098    -0.88673113     1.62706333     0.26219837
