# total energy = -19959.80350109 eV

CRYSTAL
PRIMVEC
        7.60600008     0.00000000     0.00000000
        0.00000000     7.60600008     0.00000000
       -1.89786986    -1.89786986     4.85670466
PRIMCOORD
24 1
Ti      3.92352402     6.75509698     1.06862101    -2.69188327     1.54050968     1.68120153
Ti      3.82205402     2.98136103     1.24349298     0.96776847    -1.50077893    -0.89570660
Ti     -0.14865901     6.60094299     1.23651599     3.96919803    -0.34482337    -0.54326119
Ti      0.05030502     2.71153101     1.25243200    -1.26031744     0.57406687     0.80477179
Ti      5.60484424     2.74191620     3.72477484     1.60476235    -0.56116301    -0.43222831
Ti      5.71689620    -1.01457477     3.68814979    -0.63926519     0.81539507     0.29639663
Ti      1.94439021     2.92690122     3.61413081    -1.51797756    -0.60965815    -0.02444503
Ti      1.89267123    -0.78457280     3.57362980     0.80336873    -0.61070048    -1.34095884
O       3.89197299     4.91078001     0.66615801     0.13957239    -2.20952820     1.74149084
O       3.90883798     1.07275098     0.56245398     0.02377911    -1.36560184     2.55197510
O      -0.09591602     4.57962100     0.83827698    -0.37737278     1.85869205     0.31372330
O      -0.18504799     0.94470702     0.85315099     0.37029839    -1.54867063    -0.88404895
O       5.65624222     4.71190922     4.09844880    -0.67709256    -0.40947070     0.06595165
O       5.75271023     0.84455922     4.10088281    -0.25223611    -0.12417739     0.17984668
O       2.08520020     4.81205221     4.05918279    -0.00176815    -0.36653043    -2.33738741
O       1.90936524     0.95289720     4.19752084    -0.32844390     2.63865833    -1.31599419
O       3.74881822     2.49377621     3.13216781    -0.04845297     1.07211853     0.99084645
O       3.71869322    -0.78329579     3.04925383     1.60959268    -0.56763962     0.47156209
O      -0.07860478     2.63091524     3.34536883     1.53126605     0.99443725    -0.46716628
O      -0.00286576    -1.00757375     3.33282881    -0.63545250    -0.29376356    -1.14052147
O       5.75431501     6.84881300     1.67989001    -1.46210001    -0.67484233     0.31029216
O       5.70189900     2.68814201     1.79087700    -1.08679465     1.15076604    -0.91183256
O       1.89130701     6.79807501     1.39984300    -0.71596354    -0.30726468     0.81651736
O       1.87717798     2.69916001     1.63738099     0.67551467     0.84996974     0.06897501
