# total energy = -19519.54437980 eV

CRYSTAL
PRIMVEC
        7.60600008     0.00000000     0.00000000
        0.00000000     7.60600008     0.00000000
       -1.89786986    -1.89786986     4.85670466
PRIMCOORD
23 1
Ti      3.84200998     6.64695099     1.21542500    -0.39824860    -0.27200353    -0.63084559
Ti      3.86023300     2.83838998     1.25852998    -0.13197349     0.20724513     0.10830390
Ti     -0.04374200     6.73648598     1.25093099     0.51973738    -1.14554593     0.18900855
Ti     -0.01716000     2.87198099     1.14586301     0.27571441     0.80839781    -0.52516987
Ti      5.65016224     2.91830522     3.64158182    -0.43127315    -0.84869910     0.50848598
Ti      5.67881724    -0.97288179     3.66893383     0.37747768     0.73751247    -0.39044839
Ti      1.90671321     2.75204921     3.59019681     0.40388857     0.77814055     0.81765842
Ti      1.91721420    -0.95926077     3.62899280    -0.40347617    -0.67251393     0.05471181
O       3.98026998     4.72567699     0.77048102    -0.75464066     0.04193111     0.40166971
O       4.02092301     0.92075698     0.80816198    -0.47783019     0.22512588    -0.37009424
O       0.09671598     4.78563499     0.75442800    -0.10735645    -0.03065553     0.14758318
O      -0.13938698     0.95918901     0.77054801     0.25540963    -0.34434515     0.29583432
O       5.47284521     4.75461520     4.02299580     0.68947242     0.38985883     0.32912344
O       5.76644920     0.97302022     4.03283680    -0.01007899     0.06449872    -0.23341460
O       1.93384323     4.74370225     3.99696282    -0.51853076    -0.10475938     0.40932132
O       1.72299822     0.95852521     4.06896580    -0.01756296    -0.23654698     0.06891459
O       3.76748521     2.76928324     3.19712082     0.42992229     0.01612288    -0.29328842
O       3.77957622    -0.85258477     3.17904582     0.08891675     0.12743729     0.06619745
O       0.01935323    -0.90044875     3.28853879    -0.66465227    -0.39341210    -0.38804337
O       5.72020297     6.57616501     1.72136099    -0.04644314    -0.03352334    -0.49807557
O       5.75670499     2.87277798     1.64315003     0.40982243     0.10628739     0.13634154
O       1.85310200     6.60857500     1.59339800     0.72186242     0.44719548     0.12117665
O       1.82166300     2.71274298     1.68519602    -0.21015717     0.13225143    -0.32495079
