# total energy = -4987.99992226 eV

CRYSTAL
PRIMVEC
        3.18424463     0.00000000     0.00000000
        1.22811930     4.83571902     0.00000000
       -0.00000790    -0.00006538     5.02928894
PRIMCOORD
6 1
Ti      2.20617789     2.41782672     2.51464453     0.00000000     0.00000000     0.00000000
Ti      0.00000000     0.00000000     0.00000000     0.00000000     0.00000000     0.00000000
O       1.83146305     0.94239761     0.98013437     0.20889810    -0.11047469    -0.33682827
O       2.58089268     3.89325584     4.04915469    -0.20889810     0.11047469     0.33682827
O       0.37471149     1.47540265     3.49477990    -0.20918400     0.11035025    -0.33660638
O       0.85339979     3.36025089     1.53450915     0.20918400    -0.11035025     0.33660638
