# total energy = -4987.97007421 eV

CRYSTAL
PRIMVEC
        3.47117103     0.00000000     0.00000000
        0.00000000     3.62586973     0.00000000
        0.00000000    -0.00006337     4.72118413
PRIMCOORD
6 1
Ti      1.73558536     1.81290313     2.36059201     0.00000000     0.00000000     0.00000000
Ti      0.00000000     0.00000000     0.00000000     0.00000000     0.00000000     0.00000000
O       1.73558536     0.70661625     0.92008923     0.00000000    -0.66568148    -0.50608225
O       1.73558536     2.91919001     3.80109474     0.00000000     0.66568148     0.50608225
O       0.00000000     1.10626153     3.28068227     0.00000000     0.66530147    -0.50572538
O       0.00000000     2.51954473     1.44050175     0.00000000    -0.66530147     0.50572538
