# total energy = -39034.50536008 eV

CRYSTAL
PRIMVEC
        5.93200024     0.00000000     0.00000000
        0.00000000     9.29399984     0.00000000
        0.00000000     0.00000000     9.29399984
PRIMCOORD
46 1
Ti      4.42890698     7.18099799     6.89746799    -1.72493781    -0.50262000     0.57435561
Ti      4.45718298     6.79552898     2.54760999     0.08213469    -0.15430790    -1.32677071
Ti      4.37483602     2.25896100     7.13909101    -0.29979305    -1.15339808    -0.75808491
Ti      4.49057602     2.52463502     2.03396801    -0.31719300    -0.57273221     0.62567202
Ti      1.45084802     6.85669600     7.09172002     1.15354617    -1.00897633    -0.76947978
Ti      1.43867599     7.07956000     2.15730700    -0.07671018    -0.58577414    -0.30204637
Ti      1.42089902     2.47407801     6.84589798     0.14814779    -0.34448579     0.09005344
Ti      1.55493501     2.10264701     2.57469402    -0.60288972     1.08736030    -0.24589603
Ti      2.99732599     4.62102102     4.48242299    -1.22249804    -0.21608562     1.12179252
Ti      2.91321702     4.76230399     9.09062898     0.51941394     1.35164974     0.76996649
Ti      2.93575002     9.27046299     4.63517900     0.85658493     0.02284195     0.79238832
Ti      2.89806900     9.22820099     0.09756198     1.85012384     0.77578567    -0.58291430
Ti      5.89241498     4.76955398     4.62166799     1.25032922    -0.85554338     0.55900020
Ti      5.88554001     4.66045700     9.20760599    -0.06300156     1.14958333     0.73786060
Ti      0.01209202     9.06733200     4.86284301    -0.73347867     1.91458014    -1.33435598
Ti      0.04892201     0.00086901     9.28963201    -1.59080768     0.56271390    -0.02239972
O       4.54700399     5.68604501     5.46458703    -0.48425023    -0.41004148     0.15725438
O       4.39410500     5.47813899     0.97941099     0.29731502    -1.27979330    -0.35179981
O       4.44277100     0.72239500     5.77832299     0.67354829    -0.26199165    -1.22832262
O       4.44790402     1.09548898     0.78299198    -0.02851972    -0.42760778     0.60025511
O       1.66168599     5.60093399     5.52881703    -1.64918845    -0.13953536     1.05024435
O       1.47038598     5.84984801     0.59742201    -0.05830724    -1.37356198     1.03673397
O       1.53124698     0.95701298     5.50503702    -0.68079315    -0.19205376    -0.67313871
O       1.52695699     0.77357401     1.08591299    -0.38309554     0.22637980     0.62013797
O       4.47580198     8.36667799     8.48909399    -0.12732725     0.42413113    -1.18144625
O       4.47642498     7.95795503     4.02143600     0.72867945     2.25486731    -0.63107673
O       4.42087200     3.66333699     8.44165198     0.07078301     0.53372753     1.20634457
O       4.42026498     4.01243501     3.37262003     0.41225623    -0.86745968     1.22390444
O       1.50498200     8.43023598     8.37233299    -0.25875540    -0.57326623     0.08096433
O       1.53212001     8.40702601     3.70381302    -1.15607203     0.60098170    -0.57394937
O       1.50659001     4.02965301     8.11125101    -0.65681297    -1.08586134     0.56555137
O       1.44360199     3.57061497     4.03960202     0.82244247    -0.85821193    -1.66900447
O       3.11951201     6.15932701     7.94464500    -0.36465301     0.40873048    -1.25693181
O       2.87405399     6.06501699     3.30376999    -0.49742740     0.19845504    -1.26780064
O       2.84895802     1.44561202     7.99132701     0.25756858     0.13505830    -0.32110854
O       3.24316702     1.49760199     3.21276600     0.13294382    -0.38541673     0.09509563
O       5.72365702     6.11084501     7.90093798     0.78497403    -0.17733702    -0.48314029
O       0.27369698     5.84107801     3.11332100    -0.84177486     1.58672914    -0.40090069
O       0.11470901     1.46111501     7.98055100     0.00749143     0.15426599    -0.44415669
O       2.78495101     7.82991699     5.94976499     0.48137188     0.05042912     1.60366269
O       3.05044300     7.80981000     1.45019401     0.03563010     0.39737237     0.31085240
O       3.08895001     3.19395100     6.13642798    -0.36938281     0.22480552    -0.60873667
O       0.06938699     7.85407901     6.07828002     1.28412844    -1.14497257     1.70492048
O       5.72394801     7.82503999     1.37015198     1.32627963     0.14835425     1.30918513
O       5.78511799     3.26083398     6.08531300     0.55238526    -0.32986674     0.02310060
O       0.26842601     3.09793200     1.49516598     0.45959129     0.69209726    -0.42583475
