# total energy = -4989.78873971 eV

CRYSTAL
PRIMVEC
        3.99330562     0.00000000     0.00000000
       -0.00000889     3.99330562     0.00000000
       -1.99668413    -1.99668857     5.09634610
PRIMCOORD
6 1
Ti     -0.00017585     2.99513047     1.27408639    -0.00008459     0.00008459     0.00000000
Ti      1.99678835    -0.99851353     3.82225938     0.00008459    -0.00008459     0.00000000
O       0.00003989     0.99831962     0.83015308    -0.00027125    -0.00124030    -0.63354242
O       1.99657249     0.99829720     4.26619274     0.00027125     0.00124030     0.63354242
O      -0.00002255    -0.99830229     3.37832607    -0.00124030    -0.00027125    -0.63354242
O       1.99663488     2.99491906     1.71801975     0.00124030     0.00027125     0.63354242
