# total energy = -19517.44743873 eV

CRYSTAL
PRIMVEC
        7.60600008     0.00000000     0.00000000
        0.00000000     7.60600008     0.00000000
       -1.89786986    -1.89786986     4.85670466
PRIMCOORD
23 1
Ti      3.69496501     6.69210801     1.26065103     2.34451939    -0.45337127    -1.02041672
Ti      3.72826900     2.91876401     1.13231401     0.58907492     0.24400189     0.45785117
Ti      0.03213799     6.50707600     1.29920101    -1.56612174    -0.93970050    -0.90734727
Ti      0.03114002     2.75684001     1.06954099     0.68396872     1.47375868     0.38250547
Ti      5.64524623     2.87889622     3.54202681    -0.95488776     0.31327541     2.07552457
Ti      5.63766921    -1.01601079     3.67762880     1.20640910    -0.59746160    -1.10670708
Ti      1.95347221     2.98123021     3.66970982     0.70817103     0.73652234     1.26012332
Ti      1.90029424    -0.80281380     3.58409280    -0.67633074    -1.20488804     0.69474421
O       3.57122400     4.77073299     0.86390901     0.74225925    -0.42103990    -0.74466940
O       3.71604098     0.98953002     0.69234699     0.29355607     0.05864868     0.66693155
O       0.12321199     4.64706802     0.74471898     0.33493850     1.34475970     0.60179263
O      -0.01500202     0.89342302     0.82294598     0.06638488     0.80750590     0.28850873
O       5.59343121     4.77445422     4.22212181     0.50360088    -0.70308282    -1.50256919
O       6.04454524     1.10769821     3.99264780    -0.15071889    -2.44432374    -0.45715825
O       2.01415524     4.82122222     3.96141883    -0.71290649    -0.51333765     1.02851209
O       1.88496821     1.06489921     3.96003979    -0.57849405    -1.18557262     1.03888521
O       3.81980825     2.69387924     3.43157683     0.98980952     0.32696397    -1.01854778
O       3.79893220    -0.98374876     3.31566283    -0.07833820     1.10232052    -0.88942590
O       0.00007922    -1.02890875     3.20152882     0.43732450     0.31680785     0.83311538
O       5.72050699     6.28470201     1.67261297    -1.02190513     1.15614967     0.48126235
O       5.86687101     3.12392302     1.72329403    -0.72038661    -0.89506228    -0.75779489
O       1.93650398     6.38308998     1.55882500    -0.67152740     1.60728306     0.97079621
O       2.00924099     2.81414101     1.86405999    -1.76840001    -0.13015752    -2.37591643
