# total energy = -19960.02850083 eV

CRYSTAL
PRIMVEC
        7.60600008     0.00000000     0.00000000
        0.00000000     7.60600008     0.00000000
       -1.89786986    -1.89786986     4.85670466
PRIMCOORD
24 1
Ti      3.74461999     6.59789001     1.25988901     0.51163558    -2.20613100     0.17290778
Ti      3.73721400     2.73729199     1.17788802     0.77154258     1.87961235     1.21584377
Ti      0.07877100     6.73167798     1.30060999    -0.02348446     0.12400307    -0.40817512
Ti      0.02561699     2.95833700     1.08105901    -1.15374620     0.07838885     0.35545154
Ti      5.70445524     3.10600222     3.63100384    -0.33543936    -0.79155580    -1.23685946
Ti      5.73941121    -0.86907076     3.62603481    -0.90096450     0.35889528    -0.43728876
Ti      1.75464021     2.73808623     3.64523881     1.13144136     0.43371621     0.47402855
Ti      1.86106421    -1.10148075     3.76755882     1.40636515    -0.16884055    -1.64567530
O       3.71577501     4.61833799     0.68600300    -0.50349315     0.49185710     1.01417510
O       3.74445600     0.80678401     0.81703502    -0.01642113     1.55881543     1.01060590
O       0.22151503     4.84646598     0.79470702    -0.91678631    -0.08401134    -1.06187243
O       0.21186299     1.00765202     0.81871103    -1.27286829    -0.06053639    -0.78598370
O       6.02521624     4.95199721     4.04054279    -0.70139309    -2.00877845     0.57145566
O       5.77055821     1.06546722     3.81512979    -0.65705388    -0.70054205     1.66355964
O       1.74202420     4.70217120     4.11958880    -0.08826498    -0.73791459    -0.12182174
O       2.01075623     0.89130324     4.09108980    -0.19587854    -1.18271226    -0.48227768
O       3.77375125     2.87458322     3.14776579     0.31515566     0.25731841     0.25734850
O       3.75517422     6.22734523     3.23249982     1.45360379     1.57260503     0.32923091
O      -0.02600176     2.90479125     3.17343480    -1.13602384    -0.10618274    -0.02614890
O       0.05514122    -0.82288179     3.28089980    -0.95728994     0.22579411    -1.15680530
O       5.66333499     6.53194601     1.47156102     1.42094717     0.61172866     1.39404519
O       5.68032502     3.11137702     1.56767898     0.38751707    -0.87851311     0.27963174
O       1.93783100     6.40978401     1.72758100    -1.18110738     1.02541083    -0.13707147
O       1.73178102     2.73561100     1.69755902     2.64200694     0.30757296    -1.23830391
