# total energy = -19069.34962404 eV

CRYSTAL
PRIMVEC
        5.17600016     0.00000000     0.00000000
        0.00000000     5.50899976     0.00000000
        0.00000000     0.00000000     9.26300011
PRIMCOORD
22 1
Ti      1.87469502     3.19148001     3.28975097    -0.26188032     1.91844219    -1.54976643
Ti      3.47287901     2.59300599     5.99298601    -0.87156804     0.13129883     0.45398448
Ti      4.42994898     2.16305403     1.41733300     0.17407763     0.59197050     0.56796641
Ti      1.23261299     2.05904202     7.88743501    -0.40083899     1.67920430     1.58517465
Ti      1.89130098     0.53887998     1.65215202     1.42966630     1.12391548     0.29285107
Ti      3.26779298     5.36729398     7.84819001    -1.73096474     1.15637284     1.71287573
Ti      0.56553501     5.41553902     6.04995703     2.09529430     1.80730982    -2.10032492
Ti      4.28650601     5.17083798     3.62455401     0.92907156     0.34805088    -1.07227074
O       3.43325199     3.67456798     4.34084601     0.07164099     0.08970942     3.06248839
O       1.55168698     2.31214898     0.61811401    -2.22938664    -0.76561490    -1.30833050
O       4.52170599     4.40616701     6.83668998    -0.81183307    -2.03435965    -0.03074243
O       3.31859198     0.67970701     0.43457999     1.17950790    -0.97904302    -2.11306192
O       1.32278898     0.11139398     7.78427302     0.03682618     1.37449503     3.14685120
O       4.44971402     1.08085702     5.09594199    -0.35466916    -0.90472372    -0.04797912
O       1.12499998     5.02403998     4.31212401    -0.76256454    -1.60801865    -0.07833743
O       0.00365201     3.42821100     2.62556500     1.21792379     0.45850860    -0.19289040
O       4.04447701     1.86619501     7.65148001     2.05871032    -0.95875547    -0.28158089
O       3.11870999     1.81865002     2.83670302    -2.04764711    -2.18427379    -0.80972553
O       2.22995399     3.70467298     7.14133298    -0.16064104    -1.12013262     0.03191871
O       0.06797700     0.76206599     2.22257001     0.66388479    -1.13271972    -0.11856569
O       1.81679901     1.53914701     6.13797899     0.85524770     0.71623119    -2.08935248
O       2.82392000     4.42397198     2.08856503    -1.07985807     0.29213271     0.93881784
