# total energy = -19071.54705993 eV

CRYSTAL
PRIMVEC
        5.17600016     0.00000000     0.00000000
        0.00000000     5.50899976     0.00000000
        0.00000000     0.00000000     9.26300011
PRIMCOORD
22 1
Ti      1.72726301     3.43490900     3.53812598    -0.48549979     1.18172882     0.00590660
Ti      3.84873001     2.34735302     6.08054897    -0.49883456    -0.18961070    -1.05404701
Ti      4.20530302     2.34050002     1.17790601     2.03427352    -0.82780399     0.60877343
Ti      1.34249702     2.67840499     7.61744799    -1.69439824     0.40499312     4.20268102
Ti      1.69762501     0.78809500     1.56829600    -0.42864111     0.42202052    -0.68124206
Ti      3.11139898     5.39258600     7.97637002     1.15277073    -1.09136093     1.35676907
Ti      0.61497599     5.41178900     6.21245000    -0.49343705    -0.25817382     0.29786961
Ti      4.35802998     5.18326301     3.35440299     1.11459009    -0.29713890     1.55074396
O       3.16898399     3.39890701     4.67881501    -0.00921407    -0.22491813     0.61986749
O       0.89232302     2.07317099     0.20025501    -0.24192007     0.20229139    -1.04493219
O       0.12163499     3.44307902     6.51312000    -0.27474022     0.53276414    -2.38075602
O       3.34143302     0.62608400     0.49391399    -0.56903779    -0.46375416    -1.92190393
O       1.38218298     4.66978100     7.96498901    -1.43409426     1.41494390     0.95547937
O       4.28967198     0.90539402     5.06011198    -0.00941641    -1.86625983    -3.11855466
O       0.89311901     5.02678699     4.36530897    -0.10082970    -0.87813644     1.28339053
O       0.00243400     3.46760602     2.57260700    -0.81614506     0.71643765    -0.61901774
O       4.56063602     0.93341099     7.24008502     1.66142640     0.05668925     2.61476892
O       2.61862198     2.17017501     2.31629302    -0.09870494     0.71025209     0.41676055
O       3.02757101     3.34190700     7.43993601     2.37731126     1.20510787     1.42870599
O       5.04715402     0.99068802     2.26450201     0.27938080    -0.81195905     0.26877371
O       2.24312198     1.20151901     6.96303999    -1.66644648    -0.81634947    -2.58627800
O       2.58474903     4.86774002     2.76229598     0.20160670     0.87823620    -2.20375864
