# total energy = -39037.17575547 eV

CRYSTAL
PRIMVEC
        7.60600008     0.00000000     0.00000000
        0.00000000     7.60600008     0.00000000
       -3.79573973    -3.79573973     9.71340985
PRIMCOORD
46 1
Ti      2.03657643     4.64870747     6.05749664    -0.21350294     0.39287216     0.49627889
Ti      3.95123503     6.79736798     1.22535998    -0.81901262     0.35560504     2.15408851
Ti      1.85927443     0.68277544     6.06198962     0.96661996     0.84791260     0.63906901
Ti      3.78337497     2.83457101     1.26051402    -0.48275848     0.25461747     1.38419067
Ti     -1.82371356     4.66194547     6.10242463     0.08955516    -0.10440791    -1.03187561
Ti      0.03232903     6.70689200     1.17898897     0.14137910    -0.62346807    -0.87648631
Ti     -1.88137853     0.88265347     6.04549564    -1.02270937     0.25645709    -0.63940017
Ti     -0.00311098     2.92971401     1.16319002    -0.80386033     0.96892778     0.30179594
Ti      3.79072244     0.98231443     8.42707960    -0.90795379     0.27502741     0.23168451
Ti      5.53401598     2.78164800     3.59395100     0.19312771     0.13195909     0.96377863
Ti      3.78039846    -2.83089657     8.52102661     0.53285387     0.36291957    -0.00033913
Ti      5.79117803    -1.02679098     3.61550402    -2.00531569    -0.00152595     0.94696284
Ti     -0.05940957     1.11094646     8.43038765     0.65896679    -0.39362138    -0.82662437
Ti      1.72342399     2.75260500     3.56402201     0.45555517     0.06427915     1.31062238
Ti      0.02569642    -2.72168957     8.56669460    -0.45007692    -0.37272808     0.12498060
Ti      1.85887802    -1.06127201     3.57174900     1.65462197     0.20832705    -0.51484149
O       2.07317846    -1.09752653     5.88864861    -0.48771017     0.66463196    -1.15268665
O       3.81399799     1.05332001     0.91474500    -0.04153876    -0.42987858    -1.13297965
O      -1.94452155     2.70314545     5.59901964     0.62947802     1.95387920     0.18700386
O       7.32501898     4.77426498     0.69460801     1.14639156     0.86238663    -0.07462090
O      -1.83039754    -0.97714452     5.57143162     0.36024820    -0.35668516     0.60029805
O      -0.04820403     1.08009300     0.90943201    -0.08965569    -1.93937355    -0.71764015
O       3.90574743     2.92035345     8.87975264    -0.12053285     0.22336698     1.06033799
O       5.46804700     4.68192800     4.11555800     0.73120170     0.06955762     0.17893445
O       3.84365943    -0.88177758     8.89121065    -0.03880490    -0.42375087    -0.40877573
O       5.73348400     0.91812401     3.90297401     0.45442285    -0.44759709     0.35255751
O       0.14217045     2.79906745     9.09196462    -0.42667293     1.23371911    -1.15953710
O       1.97834402     4.74388598     4.08007302    -0.29083070    -0.93439066     0.36651295
O       0.00141243    -0.62523753     9.12326064     0.06963270    -1.03615059    -0.91959575
O       1.68235698     0.81282901     4.07916299    -0.09212343     0.65427452     0.61105992
O       1.88527846     1.11912045     8.10840864     0.15345249    -0.48347582    -1.13439736
O       3.63835501     2.75987002     3.34704701     1.19249711    -0.11968567    -0.81977161
O       1.95139646    -2.95899254     8.09106565    -0.44873403     0.35851193     0.48809018
O       3.88318003    -0.86530598     3.22700098    -1.31214062    -0.47943378    -0.19930916
O      -1.97141354     1.16021546     8.00806864     1.19981833    -0.56475613     0.23874064
O      -0.01669300     2.99085002     3.14587101    -1.81283692    -0.22019424     0.99274624
O      -1.89488356    -2.75953257     8.12474662     1.90382366    -0.06895778     0.30779330
O      -0.02763702     6.34674900     3.12707998     1.61375144     0.38821204     0.29080576
O       3.93437745     4.78109343     6.55256460    -1.31875890    -0.76224675    -0.24118499
O       5.73664599     6.49018403     1.64195102    -0.13958576     0.56297796    -0.90731462
O       3.83061447     1.05344347     6.37047164    -1.59131984    -0.62724553     0.42008087
O       5.63038403     2.91059198     1.68527201    -0.76990710     0.38114382    -0.59622722
O       0.09357547     4.73307843     6.53074964    -0.53765618    -0.46369169     0.01460747
O       1.95915801     6.71980599     1.57837799    -0.72075710    -0.62954076     0.61926945
O      -0.00354157     0.99876544     6.47209362     0.58714299    -0.15659001    -0.05583667
O       1.77855299     3.06670901     1.70444600     2.21021520     0.16782908    -1.87284597
