# total energy = -19516.69314414 eV

CRYSTAL
PRIMVEC
        5.17600016     0.00000000     0.00000000
        0.00000000     5.50899976     0.00000000
        0.00000000     0.00000000     9.26300011
PRIMCOORD
23 1
Ti      1.84665397     3.15496799     3.36701101    -0.16742362     0.33098543     2.93660688
Ti      3.38134298     2.28404601     5.94863699    -0.45079194    -0.23138214    -3.33322823
Ti      4.36603802     2.03938599     1.51013201    -0.34638892     1.08728856    -1.45084731
Ti      0.87812800     3.40614901     7.83394001    -1.74688887     1.08529827     0.39876462
Ti      1.96180702     0.24561402     1.33886702     0.29471744    -0.13288572    -0.55800493
Ti      3.36721300     5.04126899     7.94456599     0.05075694     1.10564753     0.64941488
Ti      0.70400699     0.73892501     5.84521099    -0.01082332    -1.89969858    -2.51440227
Ti      4.50630502     4.87341502     3.36702599     1.21670843     0.03079797     3.44454238
O       1.75120199     1.80741098     4.70925799    -0.22995570     0.64080939    -0.14355040
O       3.46885202     3.46715902     4.44715899     0.50785605     0.61987495     0.17503665
O       4.87754303     3.00107600     9.22419400    -0.44799587    -0.50223151     0.37964229
O       3.64701399     0.64064902     0.44519698    -0.79420686    -1.43658720    -2.41743179
O       1.75493798     4.49931300     9.13772401     0.75441208     1.29570792     0.29962593
O       4.34025000     0.92151799     4.83566299    -0.79567368    -0.60705414    -1.14144733
O       0.93761202     4.75431400     4.37257601    -0.28881367    -0.60429277     0.59759993
O       0.12242902     3.32317900     2.58129498    -0.18819685     0.18638037    -0.77087461
O       5.04243699     2.18177600     6.72376699     0.89685845    -0.01010135     1.34104857
O       2.50191501     2.02813103     2.00137000     0.42463379     0.21223822    -0.24964752
O       2.55836499     3.69123299     6.94710101    -0.41067500    -0.98962954     0.19364811
O       0.24876998     0.69973902     2.25597401     0.46191994    -0.42458571    -0.85555598
O       4.95135500     4.73974300     6.87152000     0.96584503     0.38780195     1.84160449
O       2.49379700     0.82079800     6.80939602    -0.04079751    -0.72086380     2.07312187
O       2.73686902     4.67329500     2.53655098     0.34492416     0.57648165    -0.89566649
