# total energy = -19944.30309203 eV

CRYSTAL
PRIMVEC
        5.78979834     0.00000000     0.00000000
        1.51685338     5.97248573     0.00000000
        0.00000000     0.00000000    10.44565243
PRIMCOORD
24 1
Ti      2.99740940     3.53928969     3.87526274     0.22792504    -2.05609113     0.91041794
Ti      4.30924249     2.43319643     6.57039027    -0.22792504     2.05609113    -0.91041794
Ti      5.61129520     2.43319850     1.34752206    -0.67438235    -0.52148393     0.10490182
Ti      1.69535672     3.53928786     9.09813107     0.67438235     0.52148393    -0.10490182
Ti      2.23898283     0.55304687     1.34756394     0.22792504    -2.05609113    -0.91041794
Ti      5.06766909     5.41943949     9.09808919    -0.22792504     2.05609113     0.91041794
Ti      0.93693004     0.55304458     6.57034839     0.67438235     0.52148393     0.10490182
Ti      6.36972188     5.41944172     3.87530463    -0.67438235    -0.52148393    -0.10490182
O       2.36661760     2.10301389     5.33033673     1.55995417     1.85940553    -0.66872155
O       4.94003423     3.86947224     5.11531629    -1.55995417    -1.85940553     0.66872155
O       1.59654131     2.10303799     0.10754388    -0.50341422    -0.06951160     0.90945146
O       5.71011065     3.86944824    10.33810884     0.50341422     0.06951160    -0.90945146
O       4.18160764     0.88322925     0.10750998    -1.55995417    -1.85940553    -0.66872155
O       3.12504425     5.08925687    10.33814274     1.55995417     1.85940553     0.66872155
O       4.95168405     0.88320519     5.33037062     0.50341422     0.06951160     0.90945146
O       2.35496779     5.08928100     5.11528240    -0.50341422    -0.06951160    -0.90945146
O       1.13299298     3.63280452     2.82163148     0.36445941     1.30847731     1.32980307
O       6.17365886     2.33968161     7.62402153    -0.36445941    -1.30847731    -1.32980307
O       3.69947055     2.33962591     2.40122827     0.87155082     1.23999235     0.41726114
O       3.60718135     3.63286027     8.04442457    -0.87155082    -1.23999235    -0.41726114
O       0.37456639     0.64656152     2.40119491     0.36445941     1.30847731    -1.32980307
O       6.93208551     5.32592466     8.04445793    -0.36445941    -1.30847731     1.32980307
O       2.84875476     0.64661721     7.62405484    -0.87155082    -1.23999235     0.41726114
O       4.45789714     5.32586891     2.82159812     0.87155082     1.23999235    -0.41726114
