# total energy = -39034.70919289 eV

CRYSTAL
PRIMVEC
        7.60600008     0.00000000     0.00000000
        0.00000000     7.60600008     0.00000000
       -3.79573973    -3.79573973     9.71340985
PRIMCOORD
46 1
Ti      1.91107945     4.92796547     6.02918163     0.64739759     0.42047117     0.30008102
Ti      3.82489200     6.62421700     1.17865803     1.90409466     0.76381307    -0.84343631
Ti      1.80936444     0.84343546     6.15352765    -0.75334816     2.99069931     0.71442653
Ti      3.99849299     2.67037800     1.24753002     0.66264964     1.17031311    -0.49171055
Ti     -1.80408854     4.60537447     6.04208361    -0.30136271     1.19109766    -0.53000097
Ti      0.08945101     6.62614601     1.35087897    -1.25643636     0.06437736    -2.59652694
Ti     -2.14026956     0.92852943     6.08820665     0.57047170    -1.10987237     0.41117174
Ti      0.20685200     2.74169998     1.01852201    -0.43522853     0.39412506     1.86599450
Ti      3.63789743     0.98785047     8.66959063    -1.22358382     0.63722553    -1.13222786
Ti      5.73440599     2.84614301     3.57672602     1.66702395     1.46510717    -0.28504237
Ti      3.57398044    -2.88465357     8.37723465     3.03707560    -0.76459057     0.69442488
Ti      5.62611198    -0.88625002     3.73359702     1.14147895    -2.42095678    -0.56255938
Ti     -0.25974655     1.02958842     8.45466963     1.21530332    -0.18451452    -0.76306976
Ti      1.99486700     2.94020501     3.55112998    -0.86670377    -0.73696226    -0.55436759
Ti     -0.01360557    -2.71044455     8.42306764    -0.96510738    -0.93269964     1.10846392
Ti      1.96103199    -0.88641402     3.60995899     1.09526464     0.96194518     1.37475163
O       1.77983344    -0.83991156     5.95246363    -0.63382653    -3.56606819    -2.38595299
O       3.89917298     0.92420299     0.92145799    -0.03516139    -0.43311766    -1.33513143
O      -1.82951853     2.82758947     5.46089665    -0.87759034    -0.96431780     2.41490825
O       0.13230802     4.71736203     0.86558899    -0.16255394     0.42470912    -0.64979643
O      -2.13853253    -1.02258154     5.73913461     0.85228965     0.66215855    -0.85915989
O       0.12926297     0.96151199     0.82728301     0.25640773    -1.27351749    -0.08611913
O       3.52446945     2.88505346     8.90497164     0.80543924    -1.09592979     0.52611552
O      -1.54487101     4.75596302     4.04116801    -0.61286586     0.63773949     0.49770611
O       3.57369944    -1.05356254     8.85040664     0.49125006     1.26010764     0.95311138
O       5.57699602     0.89771999     4.05682002     0.01260227     0.90657671     0.14971642
O      -0.16873356     2.80742544     8.83088561     0.40006457     0.77826910     1.07321742
O       1.85568698     4.72368199     4.21255000     0.56303143     0.82592220    -1.09569067
O       0.25356242    -0.80337753     8.94175660    -1.13739604    -1.37878441     0.77801688
O       2.09492600     1.10576698     3.98982501     0.33825574    -1.08696460     0.86790011
O       1.67186043     1.05338844     8.06012963     1.51553115     0.38166267     0.29799637
O       3.95962201     3.22607698     3.17812701     0.65995100    -0.54494012     0.16480675
O       1.86901446    -2.92294557     8.00238163    -1.89735322    -0.07453117     0.87903710
O       3.94564300    -1.08247101     3.15848501    -2.87313274    -0.18258593     0.90404674
O      -2.12166856     0.86183844     8.15327461    -0.36326436     0.27696216    -0.27588127
O       0.19271900     2.90024900     3.33668497    -0.33647397    -0.63735871    -0.75504406
O      -1.89265853    -2.95130953     7.98503864     0.94514739     0.71104450     0.32238946
O       0.20773297    -0.70341701     3.12821602    -1.35979629    -0.15244616     1.70036731
O       3.76699345     4.64680444     6.46848061     0.00526151    -0.46953838    -0.52486777
O       5.70420801     6.48570999     1.64300799     1.42585001     0.13551416    -0.10909889
O       3.57093645     0.58278243     6.62451361     2.03958773     2.07413540    -0.29414819
O       5.93270802     2.80576800     1.68267200    -0.53327245    -0.11823994    -1.06205986
O       0.13815246     4.60944246     6.42021462    -2.14014927    -0.06413208     0.46465199
O       2.03749402     6.63727302     1.45937100    -1.31450526    -0.64665171     1.32832597
O      -0.22071655     0.96691045     6.54455863    -0.43778601     0.00736236    -1.03054969
O       2.18363902     3.02840800     1.66158598    -1.73453060    -0.30261921    -1.56918624
