# total energy = -19071.88053518 eV

CRYSTAL
PRIMVEC
        5.17600016     0.00000000     0.00000000
        0.00000000     5.50899976     0.00000000
        0.00000000     0.00000000     9.26300011
PRIMCOORD
22 1
Ti      1.73471499     3.30048899     3.41077101    -2.67435194     1.28163318     0.99418400
Ti      3.79298399     2.18817301     5.54911500     2.11377977     0.58967784     1.64782346
Ti      4.16401799     2.13471299     1.58502498     1.37413122    -1.23986585     1.33853120
Ti      1.07804900     3.14351501     8.17653100    -0.84339465     0.92663415    -0.25315811
Ti      1.65425899     0.41343100     1.34232101    -1.17977966     0.45998518    -0.51507700
Ti      3.45218299     5.13549302     8.19058097    -1.98933473    -0.61752393    -1.99360739
Ti      1.61205202     0.38887701     5.81199501    -1.12494675    -1.21528764    -1.26995728
Ti      4.16070899     5.00015498     3.71103200     2.62599539     0.44596032    -1.37609786
O       3.30559798     3.67374098     4.60868997    -2.01083970    -0.86021353     1.17989459
O       0.51475701     2.20031498     0.55733498     0.73612896    -0.47187859    -1.67459919
O       4.53886599     3.56242998     7.67286502     0.37762269     0.35307353     0.07418638
O       3.22295902     0.86817799     0.33429799     0.44577160     0.82166883    -0.33367301
O       1.43559099     4.66846901     9.10633200     0.25974708     0.73661670     1.39653582
O       3.10540499     0.88739199     4.51867698    -0.79024453    -1.30053517    -0.21702124
O       0.80111900     4.78329301     4.39401499    -0.16352736     0.88085976     1.91048180
O       4.97423498     3.31983602     2.92123802     0.19230008    -1.14481290    -2.28293682
O       0.34243102     1.84004302     5.11564400     1.39019574    -0.39923616     1.02749908
O       2.34631599     1.89333101     2.49892198     0.32695291    -0.63478375    -1.39562077
O       2.17234199     4.29475901     6.85747701    -0.67916024    -0.51458823     0.07812300
O       4.89351502     0.45547598     2.28712498     0.85575807     1.44191633    -1.15663304
O       2.95411099     1.14389299     6.88654398     0.38185910     0.76923681     2.50091272
O       2.51899500     4.61130998     2.32268500     0.37533646    -0.30853635     0.32020993
