# total energy = -19517.45050355 eV

CRYSTAL
PRIMVEC
        5.17600016     0.00000000     0.00000000
        0.00000000     5.50899976     0.00000000
        0.00000000     0.00000000     9.26300011
PRIMCOORD
23 1
Ti      1.89397300     3.20603900     3.35947600    -0.58049206     0.10168794     1.45761060
Ti      3.28807602     2.21684997     5.87439401     0.41327388     0.17207654    -1.06599648
Ti      4.47652600     2.24540099     1.31005798     1.01335929    -1.27447317    -1.78188340
Ti      0.71086899     3.36394702     7.99731698    -0.41685131    -1.27899857     1.93560200
Ti      1.87376103     0.54845999     1.30061301    -0.34164909     0.44907419    -2.57480213
Ti      3.33792701     5.04409601     7.97704599    -1.03111302     0.42198555     2.59318321
Ti      0.75604400     0.55430698     5.84060101    -0.49394844     0.05467787    -1.73137174
Ti      4.45415498     4.91782601     3.47049601     0.29861446     0.93566130     0.73066691
O       1.54382002     1.93396198     4.72343000     0.82647396    -0.07168932     0.00519929
O       3.44258800     3.52888601     4.40464198     0.41172787     0.31198137     1.25956334
O       0.91610700     2.01850900     0.13791798    -0.82343954     0.74560580    -0.14174523
O       3.49977798     0.86379799     0.16776998    -0.02548813    -0.83954186    -1.41785490
O       1.72017098     4.64989103     8.96609299     0.41573802     1.49212922     2.11492211
O       4.27403500     0.81833700     4.70480502    -0.23976909    -0.15167509     0.31235675
O       0.90595198     4.64412501     4.51149599    -0.02018625     0.74241917     0.47771192
O       0.08451400     3.30027398     2.62909397     0.41978571     0.70516670    -0.88038693
O       5.03926198     2.25088898     6.72136701    -1.17546998    -1.19095805    -0.55751590
O       2.83363500     2.02675802     2.20422798    -1.38989415     0.59843425     0.38075198
O       2.27167200     3.18621999     7.19711599     3.65090408     0.26190346    -2.03535184
O       0.07735698     0.69362501     2.02161902     0.70638412    -1.81212678     1.37885923
O       5.06395503     4.86736801     7.09640102    -0.78961076     0.57784948     0.35860552
O       2.59055997     0.62192599     6.74154100    -1.34904959    -0.11241047    -0.94507874
O       2.65264702     4.90785499     2.48419000     0.52070026    -0.83878004     0.12695444
