# total energy = -19926.96613361 eV

CRYSTAL
PRIMVEC
        6.21284464     0.00000000     0.00000000
        0.33044482     6.60408348     0.00000000
        0.00000000     0.00000000    11.12310280
PRIMCOORD
24 1
Ti      2.44767857     3.91357359     4.12659180    -0.01036129    -1.11803228     0.67171946
Ti      4.09561063     2.69050964     6.99651113     0.01036129     1.11803228    -0.67171946
Ti      5.49280068     2.69051190     1.43491521     0.08622892     0.61306564    -0.55951571
Ti      1.05048859     3.91357159     9.68818785    -0.08622892    -0.61306564     0.55951571
Ti      2.28245629     0.61153210     1.43495979    -0.01036129    -1.11803228    -0.67171946
Ti      4.26083292     5.99255132     9.68814327     0.01036129     1.11803228     0.67171946
Ti      0.88526630     0.61152965     6.99646649    -0.08622892    -0.61306564    -0.55951571
Ti      5.65802297     5.99255377     4.12663644     0.08622892     0.61306564     0.55951571
O       2.08275970     2.32540996     5.67603422     1.49812298     1.46829997    -0.13385374
O       4.46052951     4.27867327     5.44706871    -1.49812298    -1.46829997     0.13385374
O       1.25641062     2.32543661     0.11451857    -1.27563299     1.07900858     0.18760061
O       5.28687865     4.27864668    11.00858404     1.27563299    -1.07900858    -0.18760061
O       4.29530723     0.97663159     0.11448250    -1.49812298    -1.46829997    -0.13385374
O       2.24798198     5.62745164    11.00862011     1.49812298     1.46829997     0.13385374
O       5.12165637     0.97660500     5.67607035     1.27563299    -1.07900858     0.18760061
O       1.42163278     5.62747836     5.44703258    -1.27563299     1.07900858    -0.18760061
O       0.42672228     4.01697780     3.00462762     0.46782396     0.06427015     0.58246333
O       6.11656699     2.58710544     8.11847538    -0.46782396    -0.06427015    -0.58246333
O       3.46160802     2.58704391     2.55695922     0.52394525     0.60852712    -0.08703727
O       3.08168125     4.01703933     8.56614352    -0.52394525    -0.60852712     0.08703727
O       0.26150000     0.71493611     2.55692372     0.46782396     0.06427015    -0.58246333
O       6.28178927     5.88914712     8.56617902    -0.46782396    -0.06427015     0.58246333
O       2.91645896     0.71499764     8.11851081    -0.52394525    -0.60852712    -0.08703727
O       3.62683031     5.88908559     3.00459205     0.52394525     0.60852712     0.08703727
