# total energy = -19517.61881652 eV

CRYSTAL
PRIMVEC
        5.93400000     0.00000000     0.00000000
        0.00000000     9.29699974     0.00000000
        0.00000000     0.00000000     4.64899994
PRIMCOORD
23 1
Ti      4.38978099     7.00827999     2.24070999     0.89577165     0.19401912    -0.46696007
Ti      4.48193498     2.35930698     2.32618799     0.46884058    -0.32771756    -0.43924408
Ti      1.41134102     6.95936501     2.30700998    -0.84058110     0.47077713     0.19177557
Ti      1.47288598     2.27499899     2.32829698    -0.43044011     0.19789094     0.12700354
Ti      2.99166501     4.50936102     0.06880500    -0.31029679     0.63175910     0.60410225
Ti      2.94739499     0.10966802     0.02491102    -0.47300242    -0.55322396    -0.08599778
Ti      0.00383098     4.64094603     4.62492100     0.29021003     1.02319685     0.17633943
Ti      5.90096500     9.29026898     4.56089601     0.44517048    -0.57694137    -0.28380336
O       4.33151799     5.61141302     0.94359998     0.17128798    -0.89475914    -0.67989583
O       4.60966202     0.92194599     0.87237701    -1.15777333    -0.04496964     0.25360703
O       1.48632602     5.61691398     1.07186201     0.50505587    -1.51437081    -1.54447664
O       1.44484202     0.96772501     0.89695401     0.98139738    -0.10811673     0.19644521
O       4.63515900     8.26814201     3.62236100    -1.12113201     1.22996042     1.62032781
O       4.45231302     3.74076001     3.78651199    -0.13122890     0.48345885    -0.05067646
O       1.60892300     8.51146602     3.66859997     0.07633634    -0.41683871     0.29841726
O       1.44060002     3.67788402     3.84223499     0.40149025     0.36965921    -0.23103479
O       3.11017198     1.53300601     3.28813301    -1.29039627    -1.02516555     0.30400504
O       0.02541199     6.01345501     3.28072803    -0.00333626    -0.46010422     0.69782183
O       5.90180899     1.38077601     3.19879498     0.61603706     0.12289441     0.10992447
O       2.94257101     7.86903102     1.37772498     0.30348773     0.15944805     0.47022615
O       3.01061998     3.26761602     1.36976901    -0.48016681    -1.01385166     1.14786120
O       5.91585600     7.72718802     1.48059101     0.19980796     1.70887689    -1.59216239
O       5.91781401     3.31108100     1.57744600     0.88346068     0.34411889    -0.82360564
