# total energy = -19903.63063054 eV

CRYSTAL
PRIMVEC
        6.69937647     0.00000000     0.00000000
        2.42143416     6.70640599     0.00000000
        0.00000000     0.00000000    12.18404674
PRIMCOORD
24 1
Ti      3.86314149     3.97420987     4.52019446    -0.33711931    -1.94015131     0.53545197
Ti      5.25766938     2.73219593     7.66385241     0.33711931     1.94015131    -0.53545197
Ti      6.76427504     2.73219822     1.57178033     0.13219743    -0.89510033    -0.01643141
Ti      2.35653587     3.97420779    10.61226668    -0.13219743     0.89510033     0.01643141
Ti      2.65242458     0.62100705     1.57182918    -0.33711931    -1.94015131    -0.53545197
Ti      6.46838632     6.08539888    10.61221783     0.33711931     1.94015131     0.53545197
Ti      1.14581882     0.62100459     7.66380357    -0.13219743     0.89510033    -0.01643141
Ti      7.97499209     6.08540142     4.52024331     0.13219743    -0.89510033     0.01643141
O       2.97302314     2.36143948     6.21742579     1.79462450     2.01430632    -0.70323503
O       6.14778773     4.34496633     5.96662108    -1.79462450    -2.01430632     0.70323503
O       2.08197040     2.36146653     0.12544162    -0.46045184    -0.41660217     1.34043922
O       7.03884055     4.34493933    12.05860491     0.46045184     0.41660217    -1.34043922
O       4.93707079     0.99176338     0.12540209    -1.79462450    -2.01430632    -0.70323503
O       4.18374008     5.71464243    12.05864445     1.79462450     2.01430632     0.70323503
O       5.82812360     0.99173632     6.21746533     0.46045184     0.41660217     1.34043922
O       3.29268721     5.71466950     5.96658154    -0.46045184    -0.41660217    -1.34043922
O       1.71625732     4.07921618     3.29121499     0.58244918     2.32799954     2.27700246
O       7.40455356     2.62718963     8.89283188    -0.58244918    -2.32799954    -2.27700246
O       4.54166357     2.62712716     2.80084717     0.56778618     1.98702202     1.37488610
O       4.57914731     4.07927865     9.38319950    -0.56778618    -1.98702202    -1.37488610
O       0.50554038     0.72601323     2.80080824     0.58244918     2.32799954    -2.27700246
O       8.61527049     5.98039258     9.38323843    -0.58244918    -2.32799954     2.27700246
O       3.36843037     0.72607570     8.89287067    -0.56778618    -1.98702202     1.37488610
O       5.75238050     5.98033011     3.29117613     0.56778618     1.98702202    -1.37488610
