# total energy = -78964.44159719 eV

CRYSTAL
PRIMVEC
       10.35150501     0.00002646     0.00000000
        0.00002858    11.01713167     0.00000000
        0.00000000     0.00000000     9.26345890
PRIMCOORD
94 1
Ti      7.15426978     8.68524698     3.31415797    -0.01104418     0.11263930    -0.11574905
Ti      7.03765117     3.27215448     3.42420638    -0.05526228     0.15136630    -0.01565211
Ti      1.86490118     8.75827997     3.44203300    -0.11187877     0.02912881     0.15422125
Ti      1.84599069     3.35101783     3.50537157     0.03744222     0.07581569    -0.12165668
Ti      8.39508523     7.73791114     5.79831267    -0.01192221    -0.22694313    -0.05448504
Ti      8.49481134     2.23725944     5.82504718     0.07842510     0.01433185     0.01603752
Ti      3.30480839     7.74318665     5.82042117     0.19532704    -0.21528626    -0.07746505
Ti      3.28075244     2.19854097     5.77686012    -0.12798931    -0.03205807     0.10260505
Ti      9.72027879     7.73788411     1.16675980     0.01205822    -0.22539481    -0.05530368
Ti      9.62014533     2.23736484     1.19328033    -0.07830092     0.01454551     0.01557369
Ti      4.45883074     7.74306386     1.18865930    -0.19553273    -0.21448793    -0.07720434
Ti      4.48258798     2.19857603     1.14516344     0.13070439    -0.03224319     0.10187100
Ti      5.89884509     8.75814501     8.07374129     0.11397653     0.02930776     0.15355148
Ti      5.91784568     3.35102457     8.13720129    -0.03835984     0.07566117    -0.12146204
Ti      0.60896340     8.68530319     7.94583709     0.01730250     0.11264393    -0.11525386
Ti      0.72622294     3.27214492     8.05586689     0.05454983     0.15151439    -0.01581975
Ti      7.04650506     6.01056607     1.18206891     0.01439664     0.20117964     0.01990112
Ti      7.07219698     0.52653135     1.18524852    -0.20389421     0.03418900     0.01462881
Ti      1.88837520     6.02393819     1.19974571     0.08043519    -0.06000083     0.08086765
Ti      1.90051158     0.78073006     1.32275471     0.01506307     0.08466003    -0.12521097
Ti      8.46819579    10.50084902     8.07087842     0.00748474    -0.11363072     0.07407454
Ti      8.49837957     4.98122917     8.06146631     0.15696513    -0.03638909    -0.05352499
Ti      3.43848662    10.49423192     7.92406801     0.23523186    -0.09153542     0.15669465
Ti      3.29027616     4.98887182     8.06029320     0.00365020    -0.13630297     0.02979550
Ti      5.87539643     6.02380765     5.83149745    -0.08088128    -0.05925624     0.08084143
Ti      5.86267564     0.78078765     5.95453859    -0.01304912     0.08544370    -0.12586377
Ti      0.71748418     6.01042391     5.81377847    -0.01445809     0.20162881     0.02026879
Ti      0.69146169     0.52640889     5.81699467     0.20317636     0.03413578     0.01512735
Ti      9.64658954    10.50081764     3.43919294    -0.00569911    -0.11345717     0.07410591
Ti      9.61670871     4.98124613     3.42976096    -0.15704741    -0.03717328    -0.05262099
Ti      4.32519149    10.49434258     3.29223133    -0.24122844    -0.09172877     0.15624137
Ti      4.47333047     4.98890484     3.42852831    -0.00371833    -0.13651123     0.03032489
O       6.77316411     7.50471890     4.76181920     0.00016198    -0.07103035    -0.14503907
O       6.83372817     1.86011993     4.69095849    -0.00404358     0.08212312    -0.02881822
O       1.64415177     7.44418169     4.74953362     0.00229908    -0.05825196    -0.00919118
O       1.64297297     1.92006561     4.72289315     0.04698744    -0.07129466     0.03717302
O       8.62810214     9.14029668     4.57380778     0.01493477    -0.03599263    -0.11822297
O       8.70521426     3.57311238     4.53359590     0.01194612     0.02276121    -0.06688804
O       3.56574961     9.10678124     4.56827693    -0.21462986     0.08185933    -0.14316473
O       3.55573600     3.55146876     4.53513765     0.07730564     0.06542020    -0.01061892
O       6.11957063     7.44424496     0.11780755    -0.00164602    -0.05908217    -0.00897084
O       6.12072457     1.92011293     0.09121772    -0.04743276    -0.07151655     0.03748156
O       0.99051705     7.50476338     0.13009885    -0.00051551    -0.07130957    -0.14501439
O       0.92997535     1.86018095     0.05920799     0.00333549     0.08180765    -0.02853386
O       9.48706769     9.14032369     9.20557035    -0.01517671    -0.03684392    -0.11772417
O       9.41000309     3.57311972     9.16530874    -0.01230145     0.02271725    -0.06645430
O       4.19794235     9.10680557     9.20002382     0.21457998     0.08130114    -0.14333134
O       4.20792314     3.55144107     9.16686328    -0.07746582     0.06550479    -0.01040037
O       8.71839200     6.33155509     0.08272858    -0.03520793     0.01819082    -0.06185434
O       8.69248997     0.82367050     0.09852589    -0.01588351     0.05195636    -0.02174820
O       3.54718090     6.33682196     0.10649900     0.01687493     0.05330979    -0.01553641
O       3.42832878     0.72017262     0.08118710    -0.18585586    -0.05278014     0.03978964
O       6.81659986    10.19284473     9.17322660     0.07752907    -0.06382740     0.00087238
O       6.81285310     4.67428979     9.17065286     0.07297513     0.04553837     0.13494774
O       1.63836896     4.68667674     9.16818251     0.03182256    -0.02088251    -0.01369704
O       9.39683763     6.33156286     4.71447315     0.03480606     0.01785786    -0.06263235
O       9.42270520     0.82368643     4.73024570     0.01536415     0.05142080    -0.02206702
O       4.21653464     6.33681675     4.73823589    -0.01693329     0.05324165    -0.01513095
O       4.33521385     0.72025904     4.71289455     0.18522157    -0.05271252     0.03962740
O       6.12540960     4.68673886     4.53642363    -0.03175134    -0.02128231    -0.01382534
O       0.94716983    10.19287626     4.54144924    -0.07825901    -0.06400301     0.00092611
O       0.95089640     4.67430989     4.53889604    -0.07276610     0.04472564     0.13439084
O       5.40134725     8.94742435     2.63681298     0.03996576     0.03087356    -0.01405725
O       5.36047580     3.34753895     2.48831835     0.05319794     0.03716351    -0.05736545
O       0.16883096     8.85084034     2.52656481    -0.03700204    -0.03250544     0.05214405
O       0.20341837     3.33972369     2.48920999    -0.01322370     0.03363955    -0.00030622
O      10.16970141     7.62406609     6.72351116    -0.20691140     0.01723283     0.17620342
O      10.16243682     2.15393532     6.76008751     0.03704061     0.03664518     0.05268681
O       4.96994441     7.65495547     6.78371156    -0.01017154    -0.07526342     0.10243330
O       4.99014836     2.15544379     6.80650875    -0.10297529    -0.00582484    -0.00699829
O       7.94544127     7.62411460     2.09191190     0.20744028     0.01696389     0.17538015
O       7.95276828     2.15387564     2.12841170    -0.03747256     0.03654902     0.05281151
O       2.79379195     7.65486593     2.15200385     0.00969152    -0.07512201     0.10236928
O       2.77341981     2.15527666     2.17479612     0.10229601    -0.00613954    -0.00729834
O       7.59485640     8.85088607     7.15829537     0.03700384    -0.03311299     0.05161054
O       7.56030673     3.33980556     7.12091618     0.01268737     0.03369869     0.00005502
O       2.36213715     8.94745283     7.26861177    -0.03969862     0.03139524    -0.01399298
O       2.40321877     3.34760524     7.11998666    -0.05321029     0.03742371    -0.05742175
O       5.37119298     6.12351571     2.14277379     0.06083078     0.08489863     0.07136768
O       5.35252853     0.60634690     2.13032852    -0.06814943    -0.15745493    -0.02529529
O       0.19231562     6.10840449     2.12615478     0.11719170    -0.04402553    -0.00309664
O       0.14783779     0.56690155     2.10608640     0.14825012     0.01163425     0.08565222
O      10.23739044    10.42062353     7.20888983     0.01556289    -0.04476318    -0.02385085
O      10.16302514     4.91075388     7.12523358     0.02195466    -0.09538128    -0.03472199
O       5.06409537    10.34017584     7.03636839    -0.13253527     0.34159021    -0.04291610
O       4.98589824     4.90121798     7.13434269    -0.03397945     0.02453605     0.00558701
O       7.57140996     6.10847457     6.75792541    -0.11719890    -0.04422196    -0.00302825
O       7.61572341     0.56700997     6.73780744    -0.14906387     0.01130206     0.08580571
O       2.39253938     6.12353024     6.77455896    -0.06047211     0.08487523     0.07145818
O       2.41110051     0.60644109     6.76213397     0.06769897    -0.15808845    -0.02539814
O       7.87775013    10.42057029     2.57708758    -0.01600332    -0.04479223    -0.02339705
O       7.95223877     4.91068679     2.49342260    -0.02200222    -0.09529412    -0.03488088
O       2.69951209    10.34012606     2.40452713     0.13308241     0.34184320    -0.04249649
O       2.77781904     4.90113708     2.50255689     0.03397637     0.02500604     0.00515301
