# total energy = -19960.71592737 eV

CRYSTAL
PRIMVEC
        7.60600008     0.00000000     0.00000000
        0.00000000     7.60600008     0.00000000
       -1.89786986    -1.89786986     4.85670466
PRIMCOORD
24 1
Ti      3.73265201     6.64688098     1.17992302     1.04186975    -0.02092082     0.47102190
Ti      3.86409699     2.92602602     1.22227202     0.45172988    -0.25843144    -0.34912689
Ti     -0.03831201     6.60102697     1.19038100    -0.97103429     0.58287033    -1.05463066
Ti      0.05291799     2.86260000     1.22169601    -0.79258475    -0.56527164     1.55446358
Ti      5.76217022     2.71411625     3.66246379    -0.88712065     1.59310239    -0.10253306
Ti      5.71481023    -0.96852079     3.65637381    -0.36918381    -1.64073389     0.58795983
Ti      1.87952821     2.93259422     3.56161182     0.75066239    -1.34980935     0.28813361
Ti      1.82757623    -0.97705578     3.58014683     0.36625892     1.46138138     1.08698672
O       3.84247698     4.76991599     0.74108998    -0.04866329     2.03326127     0.14472359
O       3.81788903     1.10857400     0.71510997     0.12841817    -2.20641357     0.29900167
O      -0.06857698     4.72708402     0.79795198     0.23404658     0.13276127    -0.11567886
O      -0.26538800     0.94543300     0.90883002     0.90842353    -1.23133698    -0.26858036
O       5.70596620     4.66117822     4.05782381    -0.00207077     1.02902426     1.06786721
O       5.92094822     0.83630024     4.27879580     0.05887803     0.73391010    -3.13193983
O       1.91130520     4.80311022     3.96433481     0.24558004    -0.26237166     1.06076428
O       1.70309824     1.05300621     4.07458381     0.72804284    -0.33653439    -0.85526030
O       3.86779023     2.88851624     3.34254180    -0.59480000    -0.69728806    -1.20478879
O       3.86584021    -0.97335779     3.14957081    -1.54322888     0.47535807    -0.06517646
O      -0.03846780     2.89519721     3.26862283     1.32857254    -0.05467376    -0.23214550
O       0.00828120    -1.19842375     3.34765281    -0.17192305     0.77345240    -0.81681561
O       5.71085199     6.55131500     1.73982399     0.00510981     0.43998765    -0.78924129
O       5.77910501     2.95032801     1.59568399    -1.26278493    -0.30787018     0.73760709
O       1.84218100     6.66144002     1.58971498     0.90383746     0.28848097     0.09361647
O       1.96247701     3.05900101     1.55116198    -0.50803552    -0.61193435     1.59377242
