# total energy = -19517.88817070 eV

CRYSTAL
PRIMVEC
        5.93400000     0.00000000     0.00000000
        0.00000000     9.29699974     0.00000000
        0.00000000     0.00000000     4.64899994
PRIMCOORD
23 1
Ti      4.56427200     7.04007602     2.18427901    -0.91713598     0.68267854     0.51384570
Ti      4.48507999     2.30036600     2.32123400    -0.59926935     0.10296475    -0.07151372
Ti      1.40610799     7.00939502     2.26360501     0.54374070    -0.36365182    -0.35213328
Ti      1.46393600     2.35664400     2.39850102     0.21285117     0.23013593    -0.69102897
Ti      2.94532099     4.56343902     0.14008301    -0.02975230    -1.07148579     0.67348324
Ti      2.99528500     0.07423298     0.00298699     0.26431233    -0.21909561     0.54446703
Ti      5.90313002     4.66638998     0.08302997     0.10067492     0.06749842    -0.77839971
Ti      0.07642902     9.24018198     4.45463700    -0.32050021     0.15765985     0.78154032
O       4.36124701     5.51689498     1.12600097     0.08280241    -0.47073188    -1.04225259
O       4.49462799     0.89332602     0.96471701    -0.19095333    -0.23900033    -0.56046624
O       1.44599800     5.55266001     0.97927002     0.31913521    -0.23647987    -0.22262368
O       1.43724901     0.87758702     0.87557599     0.26036800    -0.34094743    -0.20712095
O       4.45065801     8.34739397     3.71759703    -0.14079829     0.46478595    -0.31252156
O       4.30894101     3.68562302     3.79656302     0.67578618     0.74852117     0.26453936
O       1.61584199     8.31283500     3.52744602    -0.39813033     1.25448849     1.88573106
O       1.50046701     3.78457700     3.80466801    -0.56442035     0.22399151    -0.28747849
O       2.83859001     1.44279500     3.17446601     1.43577781    -0.98039131     0.99366232
O       5.82771999     6.13987398     3.36591598     0.41971501    -0.41150650    -0.34939402
O       0.04728601     1.43783301     3.30065700    -0.81501866     0.00202937    -0.34031957
O       2.97927501     7.84320400     1.34077201    -0.03673054    -0.54321002     0.60037312
O       2.90680403     3.33261999     1.50614302     0.39401065    -0.66236270    -0.09009869
O       0.05493098     7.67817801     1.25345702    -0.26849140     1.54545006    -0.64424799
O       5.91261801     3.27821099     1.49771301    -0.42797314     0.05865871    -0.30804321
