# total energy = -19072.51676905 eV

CRYSTAL
PRIMVEC
        7.60600008     0.00000000     0.00000000
        0.00000000     7.60600008     0.00000000
       -1.89786986    -1.89786986     4.85670466
PRIMCOORD
22 1
Ti      3.49463301     6.94307699     1.08442997    -1.62617939     0.35509545    -1.28558394
Ti      4.09675602     3.13611399     1.21461398     1.05103651    -0.73076564    -0.89242124
Ti     -0.23906101     6.49303301     1.03716598     0.95428638    -1.16732935    -0.05816712
Ti      0.21081601     2.45599300     1.27649602    -0.27159216     2.32283265    -1.30877736
Ti      5.94951421     2.70602920     3.65747783    -0.40410249     1.11155053     0.75528703
Ti      5.45775122    -1.14789378     3.65058779     0.71553545    -0.73974985    -0.03071158
Ti      2.16131822     2.92095422     3.63762882     0.06515949    -0.27712131     0.21056340
Ti      1.12771625    -0.55646380     3.73403682     5.28349966    -0.92976216    -0.71529608
O       3.65809999     5.04321800     0.80583900     0.68416901    -0.98018434    -1.49291469
O       3.85413301     1.26266698     0.62425500    -0.02519759     0.00803341     1.54885806
O       0.23799599     4.41683300     0.80815198     0.05269452    -0.13143150    -1.04781363
O       7.02310399     0.71055699     0.77571998     0.16336821     1.35130007     0.62534266
O       5.90034825     4.63640823     4.06891780    -0.15436498    -0.40452132    -0.46266736
O      -0.52394776    -0.32617179     4.03556080    -3.54573589     1.66394634     1.05357239
O       1.53384121     5.21658324     4.10406983     0.03189146    -1.93762700    -1.11870128
O       2.23704724     1.08830821     3.90345180    -0.42832898     0.61156000     0.68248262
O       4.10202620     2.75951320     3.39678681    -0.11126993     0.54630846    -0.06349624
O       0.22432321     2.56212723     3.10397780     0.27319678    -0.28173028     1.07963953
O       5.13979200     6.68342299     1.83452999     1.90274971     0.25052170     1.24057085
O       5.92461298     3.11123202     1.62964902    -0.13694678    -0.86708584     0.44328972
O       1.65649598     6.81622600     1.80500100    -0.62756049     0.52995110     0.36848344
O       2.40550399     3.02820300     1.74611601    -3.84630876    -0.30379086     0.46846134
