# total energy = -19961.69321554 eV

CRYSTAL
PRIMVEC
        7.60600008     0.00000000     0.00000000
        0.00000000     7.60600008     0.00000000
       -1.89786986    -1.89786986     4.85670466
PRIMCOORD
24 1
Ti      3.83761998     6.63679697     1.13991601    -1.18768632    -0.10059882     0.72298368
Ti      3.77342200     2.85577700     1.17739499     0.55312574     0.21936892     0.85713206
Ti     -0.02555900     6.71208800     1.23945599     1.46555146    -1.54912108    -0.81921882
Ti     -0.03761101     2.77420401     1.21540002    -0.52775126     1.59900256     1.02106129
Ti      5.70984825     2.78247722     3.72233782    -0.47950886     1.86617447    -0.62361462
Ti      5.73674225    -0.92543978     3.61078080    -0.49066154    -1.27840027     0.32053981
Ti      1.87592922     2.79598124     3.61942983     0.71059738     0.28231726    -0.50684304
Ti      1.92139222    -0.96493376     3.67153580     0.32115482     0.30958690    -1.14163836
O       3.80974599     4.71582699     0.75548302     0.04294052     1.50547968    -0.26303012
O       3.74642702     0.99916999     0.79205901     0.34262688    -0.89552636    -0.37091725
O      -0.06456100     4.73211702     0.85887801     0.20006790    -0.00535484    -0.46428844
O      -0.08253001     0.91528302     0.82558901     0.13152072     1.32471974    -0.74642006
O       5.84985320     4.71340521     4.12524083    -0.16573054     0.86419823    -0.27768824
O       5.66540820     0.97050123     4.07624982     0.09141844    -1.58949282     0.07872978
O       1.77467920     4.74580525     4.04833080     0.32948005     0.30776348     0.44830234
O       1.98034822     0.96855122     3.94099883    -0.06661602    -0.52575145     0.65513893
O       3.84509821     2.84961520     3.13502082    -0.56966231     0.01915473     0.94390451
O       3.81679924    -1.05938878     3.23934880     0.35889528     0.02936792    -0.26998342
O       0.02577622     2.72805721     3.19631679    -0.47584221    -0.13523262    -0.07013021
O      -0.02481275    -0.85460078     3.21516884     0.06490624    -0.16521915     0.55082229
O       5.73974798     6.68265802     1.58376099    -1.60442116     0.05233200     0.48722860
O       5.65723898     2.95143102     1.65442801     1.39251976    -0.56890229    -0.23539204
O       1.90433101     6.84698798     1.69240600     0.52514159    -0.82571009    -0.21294167
O       1.93316398     3.04477498     1.62084499    -0.96206654    -0.74015660    -0.08373700
