# total energy = -19518.96256369 eV

CRYSTAL
PRIMVEC
        7.60600008     0.00000000     0.00000000
        0.00000000     7.60600008     0.00000000
       -1.89786986    -1.89786986     4.85670466
PRIMCOORD
23 1
Ti      3.81520298     6.68173502     1.19852001     0.87686400    -0.07009653     0.09225944
Ti      3.73495298     2.81500998     1.09903299     0.30286475     0.04031517     1.36994469
Ti      0.03345099     6.65902501     1.22287602    -0.68098521    -0.04503315    -0.26694900
Ti     -0.02566002     2.83788398     1.16957401    -0.64891814    -0.33604536     0.45545130
Ti      5.53857225     2.91080625     3.68516984    -0.92455336    -0.37637236    -0.42302350
Ti      5.77016821    -0.94000475     3.60168482    -0.04057485    -0.27006672     0.38394606
Ti      1.87181323     2.89497924     3.73306382     1.26761912    -0.19920555    -0.82770269
Ti      2.00113224    -0.93829477     3.56851679    -0.31104678    -0.24149404     0.86011866
O       3.95001199     4.73076900     0.77901898    -1.19426295    -0.14268085     0.64450124
O       3.94310898     0.94340498     0.82089600    -0.34745387     0.06648438    -0.42277822
O       0.07717002     4.73448001     0.75683999     0.27608027     0.98214455     0.85156357
O      -0.07223201     0.89852598     0.81225602     0.24879186     0.07414216    -0.34165963
O       5.67143522     4.74987420     3.96564479     0.66784944     0.20982421     0.61503639
O       5.64416724     0.97048922     4.18770079     0.39158636    -1.08160488    -2.11569936
O       1.92779823     4.74481521     4.07026482    -0.64420839     0.63520953    -0.18358763
O       1.81408825     0.95378823     3.99464984    -0.33727230    -0.56295122     0.80176179
O       3.71100522     2.76699323     3.41586481     0.23620759     0.20817459    -1.31611040
O       3.86253423    -1.09075978     3.18769581    -0.45445397     0.62517656     0.10737136
O       0.06801621    -1.01404977     3.17711782    -0.62705270     0.08617210     0.56900745
O       5.75216602     6.55623900     1.64396099    -0.06591051     0.42811583    -0.10131487
O       5.65512798     2.77701701     1.73440902     0.81536808     0.31434730    -0.09166063
O       1.92867502     6.82518598     1.67972199     0.66213130    -0.46398531    -0.93214197
O       1.80307501     2.79422501     1.67220302     0.53133024     0.11942881     0.27166595
