# total energy = -19514.42533156 eV

CRYSTAL
PRIMVEC
        5.93400000     0.00000000     0.00000000
        0.00000000     9.29699974     0.00000000
        0.00000000     0.00000000     4.64899994
PRIMCOORD
23 1
Ti      4.59847198     6.90466301     2.28251097    -2.54925976     0.23273017     0.56674334
Ti      4.50944902     2.46416202     2.44266901     0.59345994    -1.36404504    -0.67976239
Ti      1.39779699     6.97613998     2.24666202     1.99524287     1.51316651    -0.52460166
Ti      1.57796698     2.29434899     2.10751100     0.10757088    -1.77772361     1.86474391
Ti      2.90484797     4.57011502     4.48644500     1.15181376     2.22672760     2.80273874
Ti      2.98795801     0.07722400     0.18882801     0.37536449    -1.07944592    -0.22655850
Ti      5.88891701     4.55769300     0.21529301     0.95119719     1.56264226     0.79600304
Ti      5.89951601     9.21448498     4.42924898    -0.48884120     0.89405132    -0.01404697
O       4.40669201     5.45587100     1.06716800     0.67433093     0.22427793     0.03857736
O       4.47307502     0.98266601     0.87401402    -0.43264380     0.31496051    -0.54463313
O       1.43147098     5.60215898     1.07547000     0.34299532    -0.97092168    -1.86617447
O       1.21306100     0.87657000     0.97745198     1.51963720    -0.74490414    -1.79814331
O       4.11429401     8.34752600     3.80317700     2.14735068    -0.23171973    -0.88053323
O       4.44957500     3.63351198     4.09924902     0.53232937    -0.69477121    -2.12226544
O       1.47832401     8.52840397     3.60955602    -0.70019444    -0.08468600     0.48458525
O       1.65779400     3.69751999     3.82068398    -3.13340227    -1.13315603    -0.89976328
O       3.25159502     1.41227401     3.07805298    -1.92447066     0.03951144     1.06731931
O       0.13641502     6.14104298     3.30136202    -1.75189481    -0.61235087     0.88236359
O       0.12702201     1.55662298     3.05840399    -2.35722528    -1.62949508     2.63156543
O       2.91021198     7.75762799     1.35724000     0.20947274     0.78277548     0.61978496
O       2.77007600     3.38393902     1.43642799     3.08782174     0.78934516    -0.30552996
O       5.63112001     7.86608398     1.22028999     1.81012877     0.27489937     0.32727327
O       0.22336900     3.45591999     1.74617602    -2.16078392     1.46813182    -2.21968638
