# total energy = -19518.07082855 eV

CRYSTAL
PRIMVEC
        7.60600008     0.00000000     0.00000000
        0.00000000     7.60600008     0.00000000
       -1.89786986    -1.89786986     4.85670466
PRIMCOORD
23 1
Ti      3.80155999     6.72345102     1.25074901    -0.45923673     0.14958144     0.02870766
Ti      3.72682900     2.95715598     1.15090802     0.69214740    -0.27967108     1.71103302
Ti     -0.10256000     6.55824802     1.18731002     1.00298257    -0.61211433     0.08322330
Ti      0.03723498     2.74600801     1.20335600    -1.32901889     0.13594404    -0.15465757
Ti      5.71406420     2.79354623     3.54651884    -1.58297892    -0.05758759     1.52308531
Ti      5.73188123    -1.06100076     3.67861180    -0.44399009     0.44161104     0.21286917
Ti      1.93849120     2.91970124     3.64557680     1.63190858     0.35770975     0.56469571
Ti      1.83152522    -0.92210178     3.64267479     0.75416474    -0.31019548    -0.70895342
O       4.18796998     4.74533000     0.73756699    -1.53277426     0.48680771     0.50876751
O       3.79579402     1.06882798     0.83318498    -0.36689836    -0.69968150     0.03811096
O      -0.20635198     4.78028401     0.79471601     0.77479425    -0.07298850    -0.03376374
O       0.21188897     0.83854702     0.83712899    -0.47612117     0.87035294    -0.93515993
O       5.80393924     4.68103724     3.93693480    -0.10256520     0.05465293     0.30151569
O       5.50026924     0.91780724     4.27415883     0.74626091    -0.28078102    -3.27056065
O       1.89165023     4.81611724     4.12896582    -0.45693945    -0.74756446    -0.19390419
O       2.01219723     0.94098225     4.05351282    -1.06880901     0.83425567    -0.42982562
O       3.79949324     2.94270923     3.30057080    -0.18731316    -0.23165777    -1.84776331
O       3.78701524    -1.04304979     3.18020181     0.36052099    -0.06815894     0.36608949
O      -0.01423376    -1.16183776     3.20327579    -0.15967431     0.95982428     0.10129302
O       5.70957498     6.86154998     1.60883198    -0.39058980     0.00871707     0.65973297
O       5.82089800     2.80952902     1.67911201    -0.68073864    -0.50418066     0.51062179
O       1.86636101     6.67304001     1.59614998     0.89512990    -0.44918706     0.55491317
O       1.75100699     3.08684002     1.65235099     2.37973838     0.01431154     0.40992938
