# total energy = -4987.48901809 eV

CRYSTAL
PRIMVEC
        4.16610613     0.00000000     0.00000000
        0.82496285     4.08361073     0.00000000
       -2.49557244    -2.04183641     5.34393170
PRIMCOORD
6 1
Ti      0.61857853     3.06286421     1.33598307    -0.00036613     0.00036613     0.00000000
Ti      1.87691801    -1.02108990     4.00794881     0.00036613    -0.00036613     0.00000000
O       0.20628436     1.02089671     0.87048287    -0.00055510    -0.00147504    -1.15448643
O       2.28921205     1.02087750     4.47344906     0.00055510     0.00147504     1.15448643
O      -0.20625702    -1.02087434     3.54244861    -0.00147504    -0.00055510    -1.15448643
O       2.70175330     3.06264845     1.80148327     0.00147504     0.00055510     1.15448643
