# total energy = -39024.18063176 eV

CRYSTAL
PRIMVEC
        5.93200024     0.00000000     0.00000000
        0.00000000     9.29399984     0.00000000
        0.00000000     0.00000000     9.29399984
PRIMCOORD
46 1
Ti      4.44900402     7.21477903     7.17739699    -0.06497643     1.06903732    -0.92627497
Ti      4.58035301     6.72112899     1.99248199    -1.62619301     0.38076612    -0.67507270
Ti      4.24130401     1.89229302     7.07940199    -0.04115721     1.63211941    -0.59077365
Ti      4.23616999     2.38101102     2.33417698     2.51103695     2.17051452     0.91638239
Ti      1.59523303     6.99617299     7.24455599    -0.66032304     2.06847949    -0.50861402
Ti      1.57643099     7.11885401     1.71118502    -0.19382140     0.99404002     0.75827594
Ti      1.49898198     2.29518498     6.51356398     0.05107267     1.11329811     2.52831991
Ti      1.22245300     2.20187198     3.95886798    -3.11090794     1.32078081     0.42249797
Ti      3.21280098     4.94307300     4.49008198     0.09956832    -1.33645863     2.94439912
Ti      2.61341599     4.69279502     9.02878398     2.25387203    -2.66101383    -1.40954175
Ti      3.09396598     0.06669300     4.44838499    -0.82621968    -1.33019928     0.35090737
Ti      3.08290802     0.27201198     0.19237599    -1.76391883    -2.68425506    -4.60272939
Ti      0.14389001     5.34812501     4.73104898     0.05657303    -1.82685046     1.81160896
Ti      5.75233800     4.55470299     9.03476897    -0.69550989    -0.61701639    -1.55151607
Ti      0.01207201     8.41697703     4.15200498     3.55734520     2.97447281    -0.70174456
Ti      0.05097099     0.60925299     0.09987702     0.56113756    -2.61903541    -1.84361226
O       4.54101101     5.82295703     5.92665899     0.67060386    -1.85905020    -2.83693905
O       4.38093002     4.47248102     1.14938701     0.06262953     0.12967569    -0.79496919
O       4.17642699     0.79698301     5.64312598     0.33094044    -0.45705978    -1.17343726
O       4.39566501     0.86344598     1.24398999     1.86237027     1.45830969    -0.25047311
O       1.81351801     5.78521901     5.66314798    -1.38551787    -0.31249045    -1.07522906
O       1.45737801     5.40228201     0.91926698    -0.66332378    -0.63886281     0.82856787
O       1.44494600     0.76296501     5.29433901     0.39309071    -0.16708269    -1.78068475
O       1.65188600     0.78097698     1.02020601    -2.24770524     2.10248645     1.49656823
O       4.45132203     8.85537402     8.16855402     0.52928312    -0.37921317     1.35620831
O       4.43326200     8.44418002     3.32639899    -3.90995233     0.10799666    -0.62481095
O       4.53053399     3.75585897     7.91685801    -0.03863392    -0.61860585     1.55328524
O       4.95934700     4.10105198     3.94183599    -1.85118853     0.61745760    -1.09546699
O       1.52156002     8.22881901     8.64741398    -0.09377177     0.52389949    -0.59686408
O       1.74341599     8.18155400     3.44280999     0.26288460     0.13604149    -0.57650685
O       1.42073402     3.66705499     7.94251702    -0.17231206     1.80375501     3.32882418
O       1.61236599     4.09302500     3.96738599    -0.49388288    -0.72106589    -1.54981605
O       3.02235501     6.06387502     7.91274900     1.12732734    -0.40505431     1.94335490
O       3.19930500     5.82612399     2.89358698    -0.84023220     1.64231821    -0.04965856
O       2.47812198     1.19593498     7.74268397     3.03001226     0.87682389     1.15841790
O       2.88220601     1.65575302     3.30745799    -0.12387862    -0.24418496    -0.18533290
O       0.10602701     6.22917899     8.14814498    -2.42940414    -0.88579242    -0.07298670
O       5.79634502     6.59826202     3.38012402     1.78947252    -1.63721714    -0.13836988
O       0.00146402     1.31006898     7.58830403     0.32195829     0.55454371     2.21498665
O       2.92586298     7.86134202     6.32527700     0.85689732     1.55134072    -1.42509076
O       3.12822898     7.83512902     1.09931298     1.44158440    -1.41422965     0.61884728
O       3.02690699     3.36194102     5.97381001    -0.38840950    -2.34579749    -0.58595900
O       5.86440600     7.83239100     5.71372701     0.11012785    -1.16129548     4.38971676
O       5.88726598     7.91504701     1.23558501    -0.09274975     0.27203464    -0.07143736
O       0.05590202     2.86312701     5.66182102     0.28585278     0.37385551    -0.26902079
O       5.51345501     1.51762802     3.36670599     1.54834898     0.44778504    -0.65823659
