# total energy = -19959.43788551 eV

CRYSTAL
PRIMVEC
        5.93400000     0.00000000     0.00000000
        0.00000000     9.29699974     0.00000000
        0.00000000     0.00000000     4.64899994
PRIMCOORD
24 1
Ti      4.46539602     6.82074301     2.28746000    -0.98102483     1.65565427     0.64392197
Ti      4.42694997     2.31416202     2.34471603     0.29293438    -0.41685671     1.07297163
Ti      1.48277598     7.02666498     2.36631101     1.55345776     0.74131745    -0.16288793
Ti      1.43607000     2.43976197     2.31418800    -0.06665716    -1.87454676     0.48896050
Ti      2.95012602     4.68051102     0.05154800    -0.05990724    -0.64242302    -0.50841424
Ti      3.02819999     9.29648999     4.60476200    -0.42350456    -1.11823540    -0.57766256
Ti      0.03352999     4.65989999     0.02334301    -0.49243149    -0.26274473    -0.11793783
Ti      5.92614500     9.22860401     0.13688101     0.49645989     0.38282840    -1.43203403
O       4.30783900     5.62174701     0.78851099     1.47987636    -0.58330613     0.33659455
O       4.41429999     0.89316298     0.70098502     0.82264199     0.82689511     1.45499990
O       1.53614700     5.62202398     0.92032301    -0.61648880    -0.15145012    -0.29798300
O       1.44556498     0.94050699     1.01522899     0.16143294    -0.70933369    -1.41629784
O       4.48832199     8.33707999     3.53006301    -0.16360990     1.03065640     2.00402293
O       4.50538097     3.65850100     3.61222699    -0.52219665     1.02306624     1.60837655
O       1.42519202     8.34129902     3.72466699    -0.18952765     0.12549353    -0.18771785
O       1.40730297     3.69594299     3.91672002     0.78735873    -0.29071371    -1.28907936
O       2.98863801     6.25386998     3.26208702    -1.63655071    -1.66417285     0.05764518
O       3.04084700     1.38853200     3.27221499    -0.55651780     0.92128651    -1.27224197
O       5.79724102     5.84398701     3.23383599     1.48835484     1.70403679    -1.19282724
O       5.90766100     1.39336402     3.08654601     0.72827373     0.42741803     0.24362523
O       3.05740602     7.85575301     1.31286098    -1.71685889     0.00872530     0.43623332
O       3.09548498     3.29603400     1.33711301    -0.95838831    -0.36807335     0.45836796
O       5.78773499     7.88185098     1.37914201     1.64059120    -0.63234146     0.20039623
O       0.14837998     3.40880601     1.52787702    -1.06771783    -0.13317959    -0.55103209
