# total energy = -19074.15181531 eV

CRYSTAL
PRIMVEC
        7.60600008     0.00000000     0.00000000
        0.00000000     7.60600008     0.00000000
       -1.89786986    -1.89786986     4.85670466
PRIMCOORD
22 1
Ti      3.78961397     6.63102402     1.04012900     0.24611868    -1.39013429     1.02724891
Ti      3.66464702     2.66005201     1.30407198    -0.27702901     4.03536668     1.39972862
Ti      0.10287502     7.04101299     1.09447598    -0.73386202    -0.83711988     0.02066602
Ti     -0.18407499     2.99718300     1.43114299    -0.10553277    -0.46800368    -0.53823185
Ti      5.57118322     2.92932121     3.74120780    -1.51347812     1.38687721    -0.40998055
Ti      5.86975820    -0.80117880     3.51781081     1.09045848    -0.27943762     0.76611524
Ti      1.75409421     2.69548820     3.74821781     0.97047662     0.81922396     0.31590308
Ti      2.03079321    -0.94474480     3.49933083    -1.57675711    -0.51678936     0.03550720
O       3.55523100     4.60882301     0.82565002     0.49712118     1.78367751    -0.66192330
O       3.82195702     0.98208799     1.18870102     0.37593193    -3.78000153    -1.11459266
O       0.19984400     4.62755498     0.71688600    -1.02181437     0.63157450     0.57867043
O       7.18665198     1.35301299     0.45047198     0.29818483     0.20216746     2.38589463
O       5.58053521     5.03672023     4.03736280     0.13167653    -1.69381048     1.04941748
O       0.08926220    -0.88979075     3.36535283     0.02674180     1.22663032    -1.21873446
O       1.64226820     4.80783620     4.09325879     1.14093079     0.54017818    -0.81170605
O       1.99851424     0.84808322     4.16191779     0.15360496    -0.75044796    -0.81607667
O       3.64342320     3.03174722     3.35045581    -0.23306056    -0.88247389     0.71356547
O      -0.22370878     2.91513222     3.36132881     1.64473993    -0.50040885    -0.13112502
O       5.64581499     6.60069200     1.76313298    -0.36252234     0.16454809    -2.65575540
O       5.50447598     3.09427401     1.81459102     1.03857411    -0.46532922    -0.87290065
O       1.94336598     6.50357898     1.47654402    -0.93270247     1.40027292     1.13488716
O       1.77016198     2.71952301     1.78520099    -0.85780055    -0.62656033    -0.19657814
