# total energy = -19912.31238251 eV

CRYSTAL
PRIMVEC
        7.17359318     0.00000000     0.00000000
        0.00002349     3.27208811     0.00000000
        0.00000000     0.00000000    10.91764814
PRIMCOORD
24 1
Ti      2.60009630     1.93903640     4.05036960    -0.61829732     0.49253382     0.53664754
Ti      4.57352005     1.33305176     6.86727870     0.61829732    -0.49253382    -0.53664754
Ti      6.18677011     1.33305288     1.40841089    -0.61715986    -0.49270891    -0.53678458
Ti      0.98684625     1.93903539     9.50923752     0.61715986     0.49270891     0.53678458
Ti      2.60008472     0.30299239     1.40845469    -0.61836982     0.49336146    -0.53853833
Ti      4.57353164     2.96909582     9.50919372     0.61836982    -0.49336146     0.53853833
Ti      0.98683466     0.30299118     6.86723491     0.61750542     0.49342573    -0.53568800
Ti      6.18678170     2.96909704     4.05041339    -0.61750542    -0.49342573     0.53568800
O       2.27049572     1.15215784     5.57119232     5.25687562    -0.75246062     1.69084420
O       4.90312064     2.11993027     5.34645598    -5.25687562     0.75246062    -1.69084420
O       1.31635919     1.15217104     0.11240330    -5.25929683    -0.75312268     1.69048913
O       5.85725723     2.11991712    10.80524469     5.25929683     0.75312268    -1.69048913
O       4.90310910     0.48388622     0.11236788    -5.25662056     0.75380530     1.69355260
O       2.27050726     2.78820194    10.80528010     5.25662056    -0.75380530    -1.69355260
O       5.85724569     0.48387302     5.57122773     5.25820899     0.75323220     1.68931028
O       1.31637062     2.78821514     5.34642057    -5.25820899    -0.75323220    -1.68931028
O       0.26064741     1.99026946     2.94912916     0.83356172    -0.47719384     0.57964668
O       6.91296895     1.28181865     7.96851914    -0.83356172     0.47719384    -0.57964668
O       3.84745313     1.28178816     2.50972970     0.83875510     0.47764738    -0.57514288
O       3.32616323     1.99029999     8.40791844    -0.83875510    -0.47764738     0.57514288
O       0.26063588     0.35422540     2.50969486     0.83368179    -0.47662177    -0.57615615
O       6.91298048     2.91786275     8.40795328    -0.83368179     0.47662177     0.57615615
O       3.32615169     0.35425589     7.96855393    -0.83777988    -0.47665545    -0.58046249
O       3.84746466     2.91783227     2.94909432     0.83777988     0.47665545     0.58046249
