# total energy = -19944.40854259 eV

CRYSTAL
PRIMVEC
        6.11385782     0.00000000     0.00000000
        0.00003043     5.88727974     0.00000000
        0.00000000     0.00000000    10.44750993
PRIMCOORD
24 1
Ti      2.21599747     3.48879647     3.87595176     0.14629711    -0.62881236     0.51069275
Ti      3.89789079     2.39848315     6.57155853    -0.14629711     0.62881236    -0.51069275
Ti      5.27281983     2.39848518     1.34776165     0.14694940     0.62876274    -0.51074469
Ti      0.84106848     3.48879474     9.09974882    -0.14694940    -0.62876274     0.51074469
Ti      2.21598231     0.54515672     1.34780356     0.14629711    -0.62881236    -0.51069275
Ti      3.89790600     5.34212308     9.09970691    -0.14629711     0.62881236     0.51069275
Ti      0.84105327     0.54515457     6.57151668    -0.14694940    -0.62876274    -0.51074469
Ti      5.27283498     5.34212528     3.87599367     0.14694940     0.62876274     0.51074469
O       1.93508534     2.07301121     5.33128449     1.05452087     1.08950460    -0.25893538
O       4.17880298     3.81426841     5.11622581    -1.05452087    -1.08950460     0.25893538
O       1.12190083     2.07303501     0.10756298    -1.05406758     1.08987715    -0.25980030
O       4.99198754     3.81424466    10.33994708     1.05406758    -1.08987715     0.25980030
O       4.17878776     0.87062848     0.10752910    -1.05452087    -1.08950460    -0.25893538
O       1.93510055     5.01665113    10.33998095     1.05452087     1.08950460     0.25893538
O       4.99197233     0.87060474     5.33131842     1.05406758    -1.08987715    -0.25980030
O       1.12191587     5.01667494     5.11619193    -1.05406758     1.08987715     0.25980030
O       0.22214921     3.58097729     2.82213315    -0.08016831    -0.13339711     0.16383487
O       5.89173911     2.30630239     7.62537715     0.08016831     0.13339711    -0.16383487
O       3.27908353     2.30624759     2.40165522    -0.08031538     0.13352309    -0.16385158
O       2.83480472     3.58103208     8.04585495     0.08031538    -0.13352309     0.16385158
O       0.22213399     0.63733736     2.40162182    -0.08016831    -0.13339711    -0.16383487
O       5.89175426     5.24994232     8.04588829     0.08016831     0.13339711     0.16383487
O       2.83478956     0.63739216     7.62541048     0.08031538    -0.13352309    -0.16385158
O       3.27909875     5.24988746     2.82209981    -0.08031538     0.13352309     0.16385158
