# total energy = -4988.03402399 eV

CRYSTAL
PRIMVEC
        3.20523056     0.00000000     0.00000000
        0.99447828     4.92266798     0.00000000
       -0.00000662    -0.00006576     5.04766855
PRIMCOORD
6 1
Ti      2.09985105     2.46130112     2.52383439     0.00000000     0.00000000     0.00000000
Ti      0.00000000     0.00000000     0.00000000     0.00000000     0.00000000     0.00000000
O       1.79642310     0.95934272     0.98371632     0.38152331    -0.33668094    -0.50170983
O       2.40327900     3.96325951     4.06395246    -0.38152331     0.33668094     0.50170983
O       0.30342523     1.50193176     3.50755161    -0.38104303     0.33584328    -0.50021293
O       0.69104642     3.42067035     1.54011716     0.38104303    -0.33584328     0.50021293
