# total energy = -4985.62343729 eV

CRYSTAL
PRIMVEC
        2.99531151     0.00000000     0.00000000
        1.80507856     4.33218824     0.00000000
       -0.00001151    -0.00006235     4.79381773
PRIMCOORD
6 1
Ti      2.40018920     2.16606280     2.39690881     0.00000000     0.00000000     0.00000000
Ti      0.00000000     0.00000000     0.00000000     0.00000000     0.00000000     0.00000000
O       1.84943666     0.84426742     0.93424445    -3.51798083     1.75169452     1.92819156
O       2.95094174     3.48785817     3.85957312     3.51798083    -1.75169452    -1.92819156
O       0.55074761     1.32177021     3.33115431     3.51728611    -1.75244580     1.92864150
O       1.25431943     3.01035558     1.46266332    -3.51728611     1.75244580    -1.92864150
