# total energy = -4891.76509937 eV

CRYSTAL
PRIMVEC
        4.81858869     0.00000000     0.00000000
       -0.00000629     2.06510957     0.00000000
       -2.40932198    -1.03262949     5.22924385
PRIMCOORD
6 1
Ti     -0.00020589     1.54889631     1.30731092    -0.04820589    -0.04045941    92.97842519
Ti      2.40946607    -0.51641618     3.92193284     0.04820589     0.04045941   -92.97842519
O       0.00005120     0.51626474     0.85180109     0.04622228     0.04173365   -83.64642643
O       2.40920883     0.51621534     4.37744272    -0.04622228    -0.04173365    83.64642643
O      -0.00002015    -0.51630212     3.46642301    -0.00062992    -0.00288426     0.93250784
O       2.40928013     1.54878215     1.76282079     0.00062992     0.00288426    -0.93250784
