# total energy = -19517.96588250 eV

CRYSTAL
PRIMVEC
        5.93400000     0.00000000     0.00000000
        0.00000000     9.29699974     0.00000000
        0.00000000     0.00000000     4.64899994
PRIMCOORD
23 1
Ti      4.42342602     7.04834098     2.27536301     0.97907336    -0.29785290     0.13023337
Ti      4.50046899     2.31185100     2.35068102    -1.21062623     0.23678738     0.04342672
Ti      1.31974901     7.00627800     2.14993202    -0.50948896    -0.17853567     1.12896796
Ti      1.48026599     2.27686402     2.34184497     1.09809851     0.32471219     0.05562327
Ti      2.98490101     4.63441698     0.20904999    -0.35460154    -0.45402922     0.41272160
Ti      2.96073301     9.11414599     4.60150502    -0.78165036     0.99964065    -1.01457671
Ti      5.92419800     4.57777999     4.60794500     0.42948469     0.56510683    -0.51560279
Ti      5.89783301     0.11380100     0.01529799     0.32928516    -0.18697866     0.13886379
O       4.52230502     5.63674400     0.95216000    -0.62688506    -0.20492188     0.00784058
O       4.49476197     0.95987102     0.90811002    -0.04341721    -0.20428502    -0.07381100
O       1.39821600     5.62325500     0.90021401     1.24558527    -0.09530209    -0.26609873
O       1.50418898     0.88916399     0.87619301     0.06924035    -0.05976994     0.28119420
O       4.48247501     8.32333001     3.77645799     0.05934314    -0.09423174    -0.33948165
O       4.38767899     3.77311200     3.83590698     0.31006256    -0.10336327    -0.88427830
O       1.59374800     8.40720000     3.43246500     0.03685781     0.64120046     2.28469726
O       1.65269501     3.71864099     3.87320800    -1.01215653     0.01622264    -1.15112625
O       3.08598000     1.37927902     3.21963001    -0.32692103     0.29832315    -0.31769874
O       0.07547899     6.03867603     3.31665101    -0.08254530     0.65000135    -1.21455487
O       0.00545000     1.46821001     3.31197600     0.21738608     0.26962732    -0.58181181
O       2.96570600     7.85002499     1.38417100     0.15240168    -0.54752639     0.14394198
O       2.96958699     3.34293398     1.45286000     0.25306375    -1.00941805     1.19411922
O       5.84396198     7.89697798     1.40055702     0.00319511     0.41373256    -0.42214496
O       0.10969098     3.31657698     1.42805000    -0.23478526    -0.97913970     0.95955637
