# total energy = -19517.48576626 eV

CRYSTAL
PRIMVEC
        5.17600016     0.00000000     0.00000000
        0.00000000     5.50899976     0.00000000
        0.00000000     0.00000000     9.26300011
PRIMCOORD
23 1
Ti      1.82763000     3.13165599     3.40610700    -0.62473176    -0.28099057     2.28175000
Ti      3.30391901     2.27367102     5.86597802     0.39629559    -0.12532718    -1.45571570
Ti      4.35509098     2.06328602     1.38307602     2.07769792    -0.18750034    -1.15037214
Ti      0.81367500     3.49494501     7.69075798     0.28799194    -1.56821693     2.16036483
Ti      2.09464400     0.26540800     1.40830502    -0.79383765    -0.35805993    -1.39512223
Ti      3.15244498     5.30302900     7.84264000    -0.19023008    -0.76755942     2.09739772
Ti      0.77334000     0.51013200     5.91253499    -1.12171205     0.21258017    -2.17015714
Ti      4.51525002     4.91189600     3.36435698     0.91639859    -0.25149306     2.45083763
O       1.56818000     1.79913899     4.81596801     0.97368818     0.00902509    -0.54521883
O       3.54764699     3.42666299     4.54162999     0.11038058     0.95081873    -0.93657430
O       0.24914099     2.76162901     0.04955898    -0.75839961    -0.33443791    -0.52958188
O       3.42586801     0.88049898     0.11619600     0.45744750     1.16611219     1.27190747
O       1.96239298     4.58171903     9.21873501    -0.34551731    -0.03413321    -1.00850196
O       4.29075700     0.67676801     4.85357701    -0.33268545    -0.52437771    -0.30202117
O       0.96789498     4.43453901     4.47285203    -0.48189202     2.21241478     1.32670464
O       0.16484602     3.30582701     2.53476802    -0.26040965    -0.21047341    -0.46626228
O       4.99391799     2.22703701     6.69082798     0.20235952    -0.38212135     0.44407827
O       2.78335697     1.81566498     2.44406800    -0.11692019    -0.46201198    -1.14832015
O       2.55378898     3.71946402     6.94229402     0.04186452    -0.48229131    -0.31890870
O       0.22692697     0.58776998     1.93640402     0.36566423    -0.27710435     0.48302253
O       4.94801298     4.90347102     7.30696202    -0.37803689     1.10480935    -0.17093240
O       2.23512098     1.14228699     7.12163198    -0.76597845     0.16765193    -0.66412648
O       2.86457198     4.47748598     2.43288600     0.34056279     0.42268643    -0.25424749
