# total energy = -19958.31609407 eV

CRYSTAL
PRIMVEC
        7.60600008     0.00000000     0.00000000
        0.00000000     7.60600008     0.00000000
       -1.89786986    -1.89786986     4.85670466
PRIMCOORD
24 1
Ti      3.83203102     6.70149000     1.14195101    -0.89120202    -0.14384273     0.04270938
Ti      3.89266802     2.85501101     1.23356498     0.31729970    -0.20340570    -1.10795587
Ti     -0.08711898     6.76220701     1.23847400     0.07923783    -0.57251444     0.12871924
Ti     -0.01797298     2.87249900     1.25083600     0.38270859     0.39491851     1.82861810
Ti      5.59155025     2.90635020     3.71597880     3.79449176    -1.86108420     2.68441782
Ti      5.56355122    -1.00570179     3.56600484    -0.59372090     2.55253946     0.67751884
Ti      2.15519421     2.70806923     3.65120581    -4.50937723     0.96536166     0.07958390
Ti      1.83149024    -0.99020478     3.59065883     1.22323261    -0.17556964     0.03187526
O       3.73875798     4.71898300     0.71520703     0.64662446    -0.64819129     1.03128477
O       4.23080799     0.92027602     0.70299700    -1.68580792     0.93230344    -0.07736221
O      -0.25702398     4.88465501     0.87106401     1.08747600    -0.73629506     0.26160496
O      -0.17154598     1.17396200     0.73244000     0.20574798    -3.08797266     0.47399153
O       5.45814625     4.80722923     4.03339180     0.59821288    -0.16148565     1.13281639
O       5.61295922     0.89590825     3.84120981    -0.00658228     1.61667736     1.91813032
O       1.96469220     4.71055220     4.04078383    -0.45836924     1.11390000    -0.54109400
O       2.22310924     0.95620122     3.99355582    -1.20920852    -1.94723573     1.36043469
O       3.88660322     2.66540723     3.28487180    -0.49374558     0.73366456    -1.05823149
O       3.72283122    -0.86219580     3.19777282    -0.48277828    -0.67378432    -0.74088679
O       0.03966321     2.58697723     3.27306983     1.33716080     1.12712834    -0.88705303
O      -0.18106879    -0.76231677     3.19660583     2.91653195    -0.66084241    -0.36142422
O       5.58254799     6.62629498     1.65651498     1.45443015    -0.42120779    -0.88945341
O       5.79252801     2.91394802     1.98293299    -0.88780585     0.87413735    -5.23816389
O       1.91307598     6.62598202     1.61173801    -1.76635881     0.48797679    -0.17431237
O       2.11155503     2.66118101     1.64863902    -1.05819883     0.49482416    -0.57576688
