# total energy = -19893.11809896 eV

CRYSTAL
PRIMVEC
        8.87641580     0.00000000     0.00000000
        0.00002907     4.04879589     0.00000000
        0.00000000     0.00000000    13.50921109
PRIMCOORD
24 1
Ti      3.21729088     2.39931271     5.01182096     0.23458471    -0.32635359     2.78602708
Ti      5.65915360     1.64948324     8.49739032    -0.23458471     0.32635359    -2.78602708
Ti      7.65534686     1.64948462     1.74273065     0.24655577     0.32609339    -2.78815878
Ti      1.22109763     2.39931146    11.76648076    -0.24655577    -0.32609339     2.78815878
Ti      3.21727654     0.37491483     1.74278484     0.23458471    -0.32635359    -2.78602708
Ti      5.65916794     3.67388119    11.76642657    -0.23458471     0.32635359     2.78602708
Ti      1.22108329     0.37491332     8.49733612    -0.24655577    -0.32609339    -2.78815878
Ti      7.65536120     3.67388270     5.01187516     0.24655577     0.32609339     2.78815878
O       2.80945178     1.42564985     6.89364706     1.18379984     1.04631828    -2.41558086
O       6.06699271     2.62314604     6.61556422    -1.18379984    -1.04631828     2.41558086
O       1.62882829     1.42566618     0.13908489    -1.18347203     1.04571818    -2.41498976
O       7.24761626     2.62312977    13.37012600     1.18347203    -1.04571818     2.41498976
O       6.06697843     0.59874810     0.13904107    -1.18379984    -1.04631828    -2.41558086
O       2.80946605     3.45004786    13.37016983     1.18379984     1.04631828     2.41558086
O       7.24760199     0.59873176     6.89369088     1.18347203    -1.04571818    -2.41498976
O       1.62884243     3.45006419     6.61552040    -1.18347203     1.04571818     2.41498976
O       0.32251826     2.46270716     3.64917497    -2.11427522     0.63251861     0.01514072
O       8.55392622     1.58608873     9.86003631     2.11427522    -0.63251861    -0.01514072
O       4.76073746     1.58605101     3.10547362    -2.11366998    -0.63205324    -0.01570019
O       4.11570703     2.46274494    10.40373747     2.11366998     0.63205324     0.01570019
O       0.32250399     0.43830921     3.10543051    -2.11427522     0.63251861    -0.01514072
O       8.55394050     3.61048674    10.40378058     2.11427522    -0.63251861     0.01514072
O       4.11569275     0.43834693     9.86007935     2.11366998     0.63205324    -0.01570019
O       4.76075173     3.61044902     3.64913186    -2.11366998    -0.63205324     0.01570019
