# total energy = -19074.89754498 eV

CRYSTAL
PRIMVEC
        5.17600016     0.00000000     0.00000000
        0.00000000     5.50899976     0.00000000
        0.00000000     0.00000000     9.26300011
PRIMCOORD
22 1
Ti      1.85797498     3.38844502     3.26376901     0.84176123     0.88127267     0.46615943
Ti      3.44867698     2.27458797     5.95031602    -0.78994603     0.07587714    -0.72436719
Ti      4.48091399     2.24747902     1.27159399    -0.60735393    -0.20032526    -2.24839610
Ti      0.72676902     3.17084400     8.00560400     0.09548386     0.50147637     1.91958916
Ti      1.83462398     0.55259599     1.29196398     0.82237665    -0.46082490    -1.95659480
Ti      3.16715701     4.99155400     8.05578101     0.33354548     0.40742153     1.78825768
Ti      0.65762402     0.24900700     6.01067398     0.20081403     0.52485208    -1.18062221
Ti      4.50982400     4.99295701     3.37538201    -0.40791981    -0.20022473     1.09822193
O       3.44894098     3.38433400     4.39318402     0.37623609    -0.88477118     1.21589596
O       0.90413500     1.78981801     0.14966699    -0.80192686     1.46938472    -1.29060813
O       4.32733998     3.62156898     9.03874601    -0.30639256    -0.20944703    -0.30785835
O       3.51293000     0.83669099     0.30490500     0.04180384    -0.37614919    -1.52097289
O       1.64524499     4.71545498     9.13100600    -0.21895214    -0.54036664     0.01502116
O       4.28967700     0.54868802     4.93632700    -1.33147146     1.07131584     0.14636859
O       1.11304201     4.92021900     4.35685198    -0.48686762    -1.24814738     1.13001440
O       0.22915597     3.64935099     2.26461002    -0.30657460    -0.99732152     0.69091173
O       0.03633500     2.26900902     6.48196902     0.40303600    -1.02925437     0.22128927
O       2.60677899     2.11495499     2.09420600     0.84883460     0.58743584     1.07199821
O       2.38093800     3.55153602     7.07631800     0.18470349    -0.92080057    -1.20167133
O       0.12765999     0.72383902     2.15329801    -0.50875928     0.23705323     1.62555384
O       2.28688298     0.76805199     6.85504798     0.96206525     0.65746115    -0.23850719
O       2.75354699     4.82240001     2.49808900     0.65550377     0.65408272    -0.71968238
