# total energy = -19517.11059879 eV

CRYSTAL
PRIMVEC
        5.17600016     0.00000000     0.00000000
        0.00000000     5.50899976     0.00000000
        0.00000000     0.00000000     9.26300011
PRIMCOORD
23 1
Ti      1.91343900     3.18465299     3.46737900    -0.98496633    -0.39360133     1.52593924
Ti      3.41046001     2.28329601     5.91376299     0.81878919     0.61842742    -2.98458368
Ti      4.31295202     2.08460800     1.46151401     0.20683684     1.10837753    -0.72220181
Ti      0.79460499     3.48952401     7.77996901    -1.86310149     1.07583172     1.50956130
Ti      2.06343202     0.09547199     1.44328100    -2.38581827     0.66131215    -0.85179214
Ti      3.18071702     5.19103398     7.98835398     0.07495566    -0.65296763     0.76849711
Ti      0.82341901     0.56919400     5.96282598    -0.88409883    -0.24396050    -2.76050938
Ti      4.54716899     4.98911201     3.22406500     0.84595882    -0.94014556     3.08024341
O       1.76276298     1.83181002     4.78997800     0.30195792     0.20195791    -0.01693946
O       3.51193297     3.52910800     4.45148702     0.39027946     0.26940389     0.43223937
O       4.78765301     2.82728202     9.16346001     0.21850374     0.29965499    -0.24834012
O       3.38334401     0.62655502     0.34929202     1.93444269     0.06980445    -1.59079997
O       1.47104999     4.79740802     9.06154598     0.66631217    -0.36864157     0.29905669
O       4.46968501     0.75991398     4.85148798    -1.60344234     0.60410328    -0.79858751
O       0.93709703     4.68304700     4.33500500     1.14001882    -0.56539222     0.25827127
O       0.18674999     3.39544101     2.36999599     0.77140888     0.06808335     0.71884986
O       5.10743202     2.14803000     6.76427599     0.38287340    -0.23598622    -0.15285291
O       2.51985300     1.86315901     2.11857202     0.25850086     0.01074747     0.76254371
O       2.51778101     3.61568601     7.06698998     0.73083197    -0.92870132    -0.30839854
O       0.23652101     0.66115400     2.01726702     0.08887767    -0.16641754    -0.00946578
O       4.91027798     4.92027102     7.09219400    -0.17785638    -0.63612458     0.63739651
O       2.54296900     0.99655401     6.99168298    -1.24497823    -0.20750867     0.28487448
O       2.98442300     4.28539199     2.21892699     0.31371378     0.35174324     0.16699861
