# total energy = -4985.22722440 eV

CRYSTAL
PRIMVEC
        4.00519708     0.00000000     0.00000000
        0.00000000     3.02155818     0.00000000
        0.00000000    -0.00007988     5.29749343
PRIMCOORD
6 1
Ti      2.00259849     1.51073899     2.64874677     0.00000000     0.00000000     0.00000000
Ti      0.00000000     0.00000000     0.00000000     0.00000000     0.00000000     0.00000000
O       2.00259849     0.58884156     1.03240347     0.00000000    -0.87681078     0.79121435
O       2.00259849     2.43263642     4.26509007     0.00000000     0.87681078    -0.79121435
O       0.00000000     0.92186567     3.68115133    -0.00000000     0.87709206     0.79176354
O       0.00000000     2.09961230     1.61634221    -0.00000000    -0.87709206    -0.79176354
