# total energy = -4989.80785803 eV

CRYSTAL
PRIMVEC
        3.00612286     0.00000000     0.00000000
        0.00000000     4.26155901     0.00000000
        0.00000000    -0.00005829     4.49709400
PRIMCOORD
6 1
Ti      1.50306143     2.13075021     2.24854700     0.00000000     0.00000000     0.00000000
Ti      0.00000000     0.00000000     0.00000000     0.00000000     0.00000000     0.00000000
O       1.50306143     0.83050366     0.87641738     0.00000000     0.22001761     0.10749144
O       1.50306143     3.43099670     3.62067658     0.00000000    -0.22001761    -0.10749144
O       0.00000000     1.30022293     3.12496529    -0.00000000    -0.22022098     0.10771461
O       0.00000000     2.96127748     1.37212866    -0.00000000     0.22022098    -0.10771461
