# total energy = -4989.38180620 eV

CRYSTAL
PRIMVEC
        3.02633397     0.00000000     0.00000000
        0.93897252     4.64791442     0.00000000
       -0.00000625    -0.00006209     4.76593821
PRIMCOORD
6 1
Ti      1.98265006     2.32392617     2.38296921     0.00000000     0.00000000     0.00000000
Ti      0.00000000     0.00000000     0.00000000     0.00000000     0.00000000     0.00000000
O       1.69615763     0.90579801     0.92881122    -0.70714336     0.24543194     0.16795763
O       2.26914250     3.74205433     3.83712721     0.70714336    -0.24543194    -0.16795763
O       0.28648987     1.41810301     3.31178129     0.70706186    -0.24538463     0.16788281
O       0.65247638     3.22974921     1.45415714    -0.70706186     0.24538463    -0.16788281
