# total energy = -19517.54745409 eV

CRYSTAL
PRIMVEC
        5.93400000     0.00000000     0.00000000
        0.00000000     9.29699974     0.00000000
        0.00000000     0.00000000     4.64899994
PRIMCOORD
23 1
Ti      4.52826699     6.99284098     2.25874002     0.30205922     0.77227149    -0.25131051
Ti      4.42250700     2.29065702     2.34250200     1.47432098    -0.16468462    -0.30030625
Ti      1.49557202     6.94160101     2.28567302    -0.62381182     0.93773026    -0.51774684
Ti      1.51730501     2.32763201     2.29789701    -1.37861497     0.02803840    -0.03802792
Ti      2.87627801     4.56590599     0.08106599     1.40719845    -0.92369178    -0.66695135
Ti      2.98448799     0.09425001     0.03882103     1.20602266    -0.12187496     0.43664367
Ti      5.90554101     4.71316200     0.08935999    -1.21327858    -0.85917815    -0.49623004
Ti      0.06666702     9.20041299     4.43343298    -1.44802835     0.86187267     1.03166247
O       4.45560799     5.52136801     1.04210500    -0.63344061     0.67739543     0.08399591
O       4.46182699     0.95409102     0.89606901    -0.60392227    -0.14036043     0.07576504
O       1.49717701     5.49131900     0.95884801    -0.08105303     1.18044686     0.94658952
O       1.45675702     0.90396799     0.81657998    -0.02290597     0.42380563     0.83009356
O       4.40589999     8.37699398     3.80407300    -0.09779580    -0.34734640    -0.90480625
O       4.38946401     3.79807398     3.94929802     0.36670810    -0.30164631    -1.72965090
O       1.43564502     8.47291799     3.53775402     1.30067323    -0.76196676     0.28786467
O       1.40016400     3.69425697     3.77330002     0.94806122     0.60248117     0.23978323
O       2.98041703     1.34353701     3.20039601    -0.57472790     0.66410539    -0.08888718
O       5.89487999     6.23248000     3.35301501     0.74112667    -1.07537150     0.11519446
O       5.85409900     1.45389502     3.25924798     0.87847377    -0.34088727    -0.21346772
O       3.02133597     7.81806803     1.38943700    -0.85996979    -0.22980426     0.50157459
O       3.06113598     3.26045101     1.38024101    -1.67997845    -0.68332903     1.36193108
O       0.04487598     7.81046502     1.32050198    -0.00839620     0.10915288     0.13944486
O       5.88543301     3.36350701     1.61251802     0.60127944    -0.30715850    -0.84315760
