# total energy = -19517.47469517 eV

CRYSTAL
PRIMVEC
        5.93400000     0.00000000     0.00000000
        0.00000000     9.29699974     0.00000000
        0.00000000     0.00000000     4.64899994
PRIMCOORD
23 1
Ti      4.56300298     7.04007798     2.25176001     0.67307083    -0.21393977     0.29426415
Ti      4.38849302     2.31619300     2.30040002     0.50859345    -0.91615742    -0.05753951
Ti      1.59377800     7.04665502     2.30996501    -0.79432848     0.09280632    -0.60278405
Ti      1.38389598     2.32209603     2.37005398    -0.07540483    -0.65208317     0.05490619
Ti      2.94303600     4.54509599     0.13629098     0.12406554     0.88888109     0.83854221
Ti      2.99817701     0.05170199     4.57231401    -0.20963472    -0.33516759     0.09801255
Ti      5.88156901     4.57453597     4.59639999     0.82460863     1.74991017     0.68217177
Ti      0.02352701     0.02545401     0.00901898    -0.28186397    -0.31365130    -0.18458933
O       4.55858800     5.45528298     1.06101399    -0.96610883     0.56456124    -0.41179369
O       4.34482002     0.97485700     0.89807502     0.28224707    -0.18485339     0.02688706
O       1.57559600     5.59403802     1.03996898     0.52500043    -0.22451832    -0.53579444
O       1.39517899     0.98341999     0.73690102     0.86448337     0.15102383     1.39790391
O       4.38879502     8.52532300     3.60708402     0.31256116    -1.25770366     0.65188596
O       4.51823199     3.67577599     3.90541299    -1.74126149    -0.71688116    -1.81162721
O       1.41339899     8.37292000     3.70537203     0.36662891    -0.31878323     0.37652714
O       1.54802401     3.78835601     3.76740599     0.05145499    -0.39608167    -0.77037915
O       2.89947000     1.36733797     3.17097598     0.04864838     0.63043010    -0.24035710
O       5.86749697     5.94037601     3.27586700     0.27539328     1.06248178    -0.10193785
O       5.79737702     1.34884598     3.29084600     0.69771538     1.36899030    -1.32894998
O       3.07292599     7.99712600     1.43664802    -0.96518606    -1.38921692     0.22230820
O       2.90326399     3.26404503     1.38651001    -0.04958040    -0.90942318     1.36368071
O       0.06385502     7.88593898     1.46267698    -0.00647610     0.30776271    -0.55944243
O       0.02696100     3.04546000     1.34005799    -0.46462705     1.01161351     0.59810489
