# total energy = -19960.84090332 eV

CRYSTAL
PRIMVEC
        7.60600008     0.00000000     0.00000000
        0.00000000     7.60600008     0.00000000
       -1.89786986    -1.89786986     4.85670466
PRIMCOORD
24 1
Ti      3.83127499     6.55307600     1.25278401     0.91074601     0.38807808    -1.20453991
Ti      3.75284298     2.79910899     1.18856899     1.86795779    -0.42529893     0.02755684
Ti      0.01449898     6.81431901     1.27208300    -1.07041055    -2.07745264    -1.12171899
Ti      0.07033200     2.85823503     1.25131602    -1.88254623     3.33992621    -0.02986312
Ti      5.67262221     2.90103620     3.62397880    -0.54980696     0.85092670     0.65863923
Ti      5.68836524    -0.83827778     3.66058082    -0.31611905    -0.58898879    -0.92354728
Ti      1.89961223     2.71535823     3.59216080     0.84037798     1.15745862     1.02073065
Ti      1.91099420    -1.07248078     3.58377784     0.32538814    -0.91834440     1.31254634
O       3.88883598     4.71225901     0.80857501    -0.94207363    -1.37810126    -0.52800785
O       3.85023102     0.74463701     0.79137299    -0.18749288     2.46612928    -0.93572969
O      -0.00796301     4.81803302     0.80854299     0.48166807    -0.25045948    -0.19954056
O      -0.12713801     1.11523502     0.80985202     0.30001828    -1.74448540    -0.07815745
O       5.50070824     4.82567021     4.11348680     0.67075144     0.67451400     0.44867489
O       5.59228221     1.05827825     3.92885183     1.02870158    -1.13443670     1.05035054
O       2.05938323     4.61520923     3.98932981    -0.34786370     1.13846022    -0.28375399
O       1.90559125     0.86471621     3.98433681    -0.55697983    -0.22662200     1.10138336
O       3.78044921     2.65753122     3.30348381    -0.98895540     0.61607768    -1.25562132
O       3.84697123    -0.86234180     3.10955681    -0.41973995    -0.34507457     1.51683007
O       0.01391921     3.07527221     3.18593079    -0.37127952    -0.88474135    -0.24265155
O      -0.04422578    -0.92493876     3.29777981     1.08615728    -0.04046661    -0.24766855
O       5.76792100     6.66269200     1.63631200     0.29031031     0.08609856     0.40042504
O       5.56444600     2.93808703     1.66898001     0.94012113    -0.34924438    -0.23386377
O       1.96893699     6.67816101     1.67840799    -1.92351575    -0.16990987    -0.52775280
O       1.87048701     2.78193301     1.55856401     0.81458543    -0.18404246     0.27528040
