# total energy = -19958.90355274 eV

CRYSTAL
PRIMVEC
        5.00084168     0.00000000     0.00000000
        0.53094081     5.29585938     0.00000000
        0.00000000     0.00000000     8.96164185
PRIMCOORD
24 1
Ti      2.12719967     3.13832139     3.32470529     0.76267998    -0.24357483     0.16049680
Ti      3.40458297     2.15753803     5.63693687    -0.76267998     0.24357483    -0.16049680
Ti      4.52920901     2.15753983     1.15607999    -1.02934693    -0.59108629     0.82720364
Ti      1.00257365     3.13831985     7.80556232     1.02934693     0.59108629    -0.82720364
Ti      1.86172937     0.49039175     1.15611594     0.76283014    -0.24248854    -0.16078297
Ti      3.67005328     4.80546787     7.80552637    -0.76283014     0.24248854     0.16078297
Ti      0.73710327     0.49038980     5.63690097     1.02935516     0.58950712     0.82777751
Ti      4.79467932     4.80546977     3.32474124    -1.02935516    -0.58950712    -0.82777751
O       1.76975131     1.86476213     4.57305736    -0.56555600    -0.30731096    -0.33429264
O       3.76203133     3.43109734     4.38858480     0.56555600     0.30731096     0.33429264
O       1.10460757     1.86478354     0.09226513     0.72639039    -0.76284453     0.11523457
O       4.42717513     3.43107597     8.86937683    -0.72639039     0.76284453    -0.11523457
O       3.49656102     0.78316750     0.09223607     0.56479213     0.30633831    -0.33394709
O       2.03522162     4.51269197     8.86940588    -0.56479213    -0.30633831     0.33394709
O       4.16170482     0.78314613     4.57308647    -0.72704139     0.76331556     0.11501783
O       1.37007778     4.51271335     4.38855575     0.72704139    -0.76331556    -0.11501783
O       0.50464042     3.22124200     2.42076310    -0.45436218    -0.16200064    -0.55066700
O       5.02714217     2.07461747     6.54087906     0.45436218     0.16200064     0.55066700
O       2.89011057     2.07456815     2.06008648     0.20421869    -0.50378111    -0.37983847
O       2.64167208     3.22129127     6.90155558    -0.20421869     0.50378111     0.37983847
O       0.23917011     0.57331215     2.06005783    -0.45499158    -0.16220016     0.54954342
O       5.29261248     4.72254727     6.90158418     0.45499158     0.16220016    -0.54954342
O       2.37620177     0.57336147     6.54090766    -0.20514351     0.50425908    -0.37899694
O       3.15558088     4.72249800     2.42073450     0.20514351    -0.50425908     0.37899694
