# total energy = -4987.48917823 eV

CRYSTAL
PRIMVEC
        2.76258255     0.00000000     0.00000000
        0.43177554     4.30696392     0.00000000
       -0.00000288    -0.00005617     4.33398697
PRIMCOORD
6 1
Ti      1.59717766     2.15345387     2.16699348     0.00000000     0.00000000     0.00000000
Ti      0.00000000     0.00000000     0.00000000     0.00000000     0.00000000     0.00000000
O       1.46543741     0.83935292     0.84463022    -1.71975652     1.23561067     1.27516454
O       1.72891796     3.46755482     3.48935670     1.71975652    -1.23561067    -1.27516454
O       0.13173907     1.31407818     3.01162458     1.71947756    -1.23463854     1.27420732
O       0.30003379     2.99282946     1.32236234    -1.71947756     1.23463854    -1.27420732
