# total energy = -19926.42363130 eV

CRYSTAL
PRIMVEC
        6.52144835     0.00000000     0.00000000
        0.00003246     6.27976505     0.00000000
        0.00000000     0.00000000    11.14401060
PRIMCOORD
24 1
Ti      2.36373063     3.72138290     4.13434855     0.20226516    -0.85193098     0.71580258
Ti      4.15775017     2.55838203     7.00966243    -0.20226516     0.85193098    -0.71580258
Ti      5.62434115     2.55838419     1.43761243     0.20353040     0.85243054    -0.71599413
Ti      0.89713972     3.72138105     9.70639874    -0.20353040    -0.85243054     0.71599413
Ti      2.36371447     0.58150050     1.43765713     0.20226516    -0.85193098    -0.71580258
Ti      4.15776640     5.69826462     9.70635404    -0.20226516     0.85193098     0.71580258
Ti      0.89712349     0.58149821     7.00961779    -0.20353040    -0.85243054    -0.71599413
Ti      5.62435731     5.69826697     4.13439325     0.20353040     0.85243054     0.71599413
O       2.06409102     2.21121195     5.68670345     1.16267719     1.32973622    -0.40576291
O       4.45738984     4.06855297     5.45730753    -1.16267719    -1.32973622     0.40576291
O       1.19669422     2.21123735     0.11473384    -1.16197348     1.32969714    -0.40666125
O       5.32478671     4.06852764    11.02927688     1.16197348    -1.32969714     0.40666125
O       4.45737361     0.92867038     0.11469771    -1.16267719    -1.32973622    -0.40576291
O       2.06410725     5.35109454    11.02931301     1.16267719     1.32973622     0.40576291
O       5.32477048     0.92864505     5.68673965     1.16197348    -1.32969714    -0.40666125
O       1.19671026     5.35111994     5.45727139    -1.16197348     1.32969714     0.40666125
O       0.23695915     3.81970911     3.01027535    -0.15462286    -0.12655746     0.13571470
O       6.28452171     2.46005588     8.13373562     0.15462286     0.12655746    -0.13571470
O       3.49768910     2.45999743     2.56176557    -0.15381502     0.12681637    -0.13597258
O       3.02379170     3.81976756     8.58224528     0.15381502    -0.12681637     0.13597258
O       0.23694292     0.67982652     2.56172994    -0.15462286    -0.12655746    -0.13571470
O       6.28453788     5.59993847     8.58228084     0.15462286     0.12655746     0.13571470
O       3.02377554     0.67988497     8.13377118     0.15381502    -0.12681637    -0.13597258
O       3.49770533     5.59987996     3.01023979    -0.15381502     0.12681637     0.13597258
