# total energy = -19925.88763401 eV

CRYSTAL
PRIMVEC
        6.10863201     0.00000000     0.00000000
        3.05952331     5.73654410     0.00000000
        0.00000000     0.00000000    11.31377138
PRIMCOORD
24 1
Ti      4.02715601     3.39947073     4.19732851     0.74131334    -2.96833353     0.57904684
Ti      5.14099948     2.33707352     7.11644300    -0.74131334     2.96833353    -0.57904684
Ti      6.51475443     2.33707556     1.45951204    -2.00504778    -1.12953103     0.78078621
Ti      2.65340125     3.39946895     9.85425952     2.00504778     1.12953103    -0.78078621
Ti      2.49739459     0.53119887     1.45955742     0.74131334    -2.96833353    -0.57904684
Ti      6.67076102     5.20534560     9.85421420    -0.74131334     2.96833353     0.57904684
Ti      1.12363953     0.53119666     7.11639761     2.00504778     1.12953103     0.78078621
Ti      8.04451606     5.20534775     4.19737383    -2.00504778    -1.12953103    -0.78078621
O       3.01073083     2.01993474     5.77333096     1.69759129     2.05725507    -1.10162890
O       6.15742473     3.71660955     5.54044054    -1.69759129    -2.05725507     1.10162890
O       2.19825368     2.01995783     0.11648162     0.64248318    -1.31712959     1.63652345
O       6.96990195     3.71658650    11.19728952    -0.64248318     1.31712959    -1.63652345
O       4.62766319     0.84833747     0.11644490    -1.69759129    -2.05725507    -1.10162890
O       4.54049235     4.88820676    11.19732624     1.69759129     2.05725507     1.10162890
O       5.44014041     0.84831442     5.77336762    -0.64248318     1.31712959     1.63652345
O       3.72801509     4.88822988     5.54040383     0.64248318    -1.31712959    -1.63652345
O       2.08291622     3.48929127     3.05613191     0.68337376     2.90820723     2.71385619
O       7.08523934     2.24725302     8.25763954    -0.68337376    -2.90820723    -2.71385619
O       4.47478830     2.24719944     2.60078978     0.88229366     1.83860221     1.52444105
O       4.69336726     3.48934485     8.71298148    -0.88229366    -1.83860221    -1.52444105
O       0.55315468     0.62101919     2.60075367     0.68337376     2.90820723    -2.71385619
O       8.61500087     5.11552504     8.71301760    -0.68337376    -2.90820723     2.71385619
O       3.16360572     0.62107277     8.25767559    -0.88229366    -1.83860221     1.52444105
O       6.00454982     5.11547146     3.05609579     0.88229366     1.83860221    -1.52444105
