# total energy = -19075.46446571 eV

CRYSTAL
PRIMVEC
        7.60600008     0.00000000     0.00000000
        0.00000000     7.60600008     0.00000000
       -1.89786986    -1.89786986     4.85670466
PRIMCOORD
22 1
Ti      3.66894002     6.87126298     1.24393701     0.90844590    -1.39056006    -1.55143173
Ti      3.84011003     2.94488002     1.08475399     0.50687929     1.91723737     1.50620678
Ti     -0.03687201     6.54585300     1.09647003    -0.37838811    -0.26095961     0.40785167
Ti     -0.00805402     2.69228599     1.18638999    -0.33252321     0.84069885    -0.21045516
Ti      5.69657024     2.72400123     3.62038383    -0.77598982    -0.59610072    -0.32195263
Ti      6.14494323    -1.12651676     3.69182583    -0.85232873     0.57754892     0.20467943
Ti      1.89646622     2.92979524     3.60288182     1.12270244    -0.36084881     0.53410600
Ti      1.56057525    -0.89995180     3.73573383     0.27350840     0.28122917    -0.56045056
O       3.89834101     4.91116197     0.73537302    -0.81243213    -0.14088056     0.16299695
O       4.01843599     1.12872899     0.71898397    -0.49531241    -1.74836931     0.92995833
O      -0.11166201     4.69153003     0.86963301     0.28672259    -0.00782387     0.17632555
O       7.32830199     0.84624899     0.61567302     0.31490035    -0.40251920     1.58168952
O       5.77803220     4.56474720     4.01849980     0.83248932     2.09854161    -0.09751041
O       5.58879424     0.84686024     4.07417983     0.72938239    -0.29768063     0.12211588
O       1.96784821     4.85457520     4.15617082    -0.72421832     1.33948225    -1.00040118
O       2.22650725     1.08965523     4.03123181    -1.04487846    -1.22395303    -0.46969856
O       3.79390920     2.92602522     3.14618884     0.12088766     0.09383913     0.20768633
O       0.02648421     2.58300221     3.34457083     0.44375791     0.41165871    -1.21621144
O       5.41205401     6.61534498     2.01484698     1.01248126     0.36501142    -0.29975603
O       5.71515002     2.97960199     1.73049200     1.16363236    -0.70039344    -0.66257944
O       1.84659201     6.85878598     1.80314301    -0.32509503    -0.50605602     0.07545882
O       1.98497302     2.91837200     1.47297599    -1.97462339    -0.28910215     0.48137214
