# total energy = -19072.36304004 eV

CRYSTAL
PRIMVEC
        5.17600016     0.00000000     0.00000000
        0.00000000     5.50899976     0.00000000
        0.00000000     0.00000000     9.26300011
PRIMCOORD
22 1
Ti      1.68328902     3.47162300     3.50287902     0.20410401    -1.01323794     0.82180586
Ti      3.84977799     2.33868399     6.13537698    -0.60516746    -0.94407421    -1.88625942
Ti      4.21100099     2.37476102     1.23489300     1.95271449    -0.59137889    -0.76995158
Ti      1.32425702     2.68718700     7.66085603    -0.60110332     0.03492845     3.34141951
Ti      1.68514500     0.79593301     1.54280299     0.32414398     0.76876399    -0.34370366
Ti      3.10858899     5.34997401     7.99473999     1.98798362     0.84606912     0.76591597
Ti      0.64303900     5.37099700     6.24139102    -1.15549250     0.21083954    -0.29750529
Ti      4.35961598     5.21036699     3.36959202     0.58448987    -0.25637122     1.37265052
O       3.19785897     3.36167500     4.71894300    -0.47894682    -0.49417778    -0.03772067
O       0.87301800     2.08886301     0.20402699     0.09081757     0.09743816    -1.48783187
O       0.21932201     3.42103302     6.42254602    -0.64912023    -0.21663995    -1.48493578
O       3.33570700     0.63416702     0.46356599    -0.62880285    -0.70545672    -1.52902662
O       1.42886203     4.73573400     7.96453402    -3.11422749     0.04704992     1.21515985
O       4.21387601     0.77226800     4.97582198     0.09664960    -0.46853076    -0.99677747
O       0.91099599     4.89834202     4.37584399    -1.02976062     0.46103445     1.41673545
O       0.02239198     3.44286100     2.40848897    -0.45957175     1.90700052     0.49527873
O       4.62065700     0.91358298     7.30218498     0.70783499     0.56386164     0.80488929
O       2.64453198     2.31960000     2.19165801    -0.99885364    -0.51335590     0.53160457
O       3.05688499     3.41339202     7.45709998     2.09763735    -0.50127300     1.14778690
O       5.07954501     1.07211300     2.25158501    -0.07464687    -2.14332535     1.26423709
O       2.14706001     1.17928002     6.88855702     0.08953047     0.04290916    -1.58959412
O       2.54591901     4.79564300     2.74074699     1.65978732     2.86792677    -2.75417753
