# total energy = -39026.85988119 eV

CRYSTAL
PRIMVEC
        5.93200024     0.00000000     0.00000000
        0.00000000     9.29399984     0.00000000
        0.00000000     0.00000000     9.29399984
PRIMCOORD
46 1
Ti      4.43935299     6.93128501     6.91994199    -1.04797098     0.34308376    -0.52109853
Ti      4.51561500     6.83283000     2.39551402     0.77337835    -0.16345692     0.20212118
Ti      4.47307200     2.24070401     7.45266701    -4.73818416     1.37364143    -0.83480408
Ti      4.45542400     2.43267502     2.11555598    -1.97443441    -1.89279620     0.21577400
Ti      1.47209702     6.69473299     6.94270101     1.23022447     1.50882494     1.20249280
Ti      1.50234601     7.20808298     1.99361099    -0.76723932    -0.84113131     2.50609555
Ti      1.51546199     2.76810201     6.94568102     2.49240570    -1.20818085     0.70494455
Ti      1.24479100     1.66294099     2.13596602     1.06618340     2.28327158     5.36571200
Ti      2.99614698     4.57072600     4.53125801     1.55827421     1.50201974     0.01747939
Ti      2.80191400     5.06349898     0.18711602     2.81824713    -0.52472121    -2.94807889
Ti      3.07369002     0.23635898     4.82175197    -0.46521635     0.20231170    -0.18754225
Ti      2.94436402     9.01881502     9.18298702     3.12846961     1.41735611    -1.73951314
Ti      0.16217600     4.52686801     4.48895399    -1.14622110     1.07402964    -0.66524105
Ti      0.02813403     4.56410002     0.22508602    -1.41606233    -0.76181506    -1.94361407
Ti      0.01945600     9.20196702     4.91046399     0.68843550    -0.61777538    -0.46270181
Ti      0.09510400     0.23951600     9.07637802    -4.11299577    -5.16896545     0.67925228
O       4.21775298     5.77566202     5.25895102     1.84290392    -0.69327277     0.70674227
O       4.45912702     5.54335601     0.88225997     1.18522475     1.50757898     2.62046237
O       4.28098998     1.10874397     5.87631201     1.22945854    -1.41712908    -1.69477824
O       4.42910902     0.73089702     0.91333300     0.52701927     1.82394486    -0.03144023
O       1.61032998     5.54118803     5.63166802    -0.50059269    -2.04853157    -2.50821568
O       1.38470599     5.33887398     1.18378099    -0.76876013     1.21332640    -0.20413744
O       1.25140000     1.12131998     5.66219102     0.29982391    -1.15095501    -1.16403525
O       1.51026298     0.84996000     0.66320001     2.26372116    -0.21374848     0.03128622
O       4.34828502     8.66327199     8.02672801     1.67041086    -0.48925617     0.76492764
O       4.36868200     8.55529300     3.92124602     0.17124865    -0.36723363    -0.36517469
O       4.12661199     3.74209402     8.96628899     2.02013424    -2.73073574    -1.50883934
O       4.58543703     3.80311699     3.40436902    -0.64133878     0.02039323     1.40477236
O       1.56411799     8.26528001     8.38762801    -2.73491893     0.69075360    -0.30876132
O       1.14940500     8.44412800     3.41142602     0.69326789     2.05410341     2.54297624
O       1.68393001     3.68097801     8.78130900    -1.40654307     0.47852053    -1.87850472
O       1.53503202     3.75341698     3.67542001    -0.77409157    -1.01320554    -0.08642921
O       3.00865800     6.36439701     8.09593403     0.35274597    -2.69681517     0.27470808
O       2.60964100     5.99284102     3.15052502     3.03275023     1.39339188    -0.25419169
O       2.77422300     1.49517201     7.90679898     1.67414462     0.46924244    -0.08271885
O       2.90441400     1.55523601     3.26309499    -0.18282376    -0.61467875    -0.68780660
O       0.11650001     5.87262502     7.86341402    -1.40907947    -1.15124529     1.46995833
O       0.16320498     5.90957599     2.86795702    -2.92079767     1.66600502     2.23502584
O       0.17631699     1.56572197     7.94436200     0.00387594     1.88970367    -1.11417048
O       2.97579498     7.76450201     6.14843400    -0.39637375     1.51156702    -1.52020002
O       3.13551200     7.55594701     1.01715699    -0.73488121     0.14101940     2.31766421
O       3.11849101     3.29947000     6.12561900    -0.49673012     0.63104691     0.26657285
O       0.10553101     7.71581003     6.27527101    -0.82716970     2.56202889    -2.59474207
O       5.89513601     8.02364698     1.37207099    -0.92990125    -1.40997550    -0.55592696
O       0.08813198     3.51081398     6.06820401    -1.32613025    -0.49845430     0.60606169
O       0.12536500     3.00715201     1.40932501     0.99610847    -0.08308652    -0.27236349
