# total energy = -19517.00023713 eV

CRYSTAL
PRIMVEC
        5.93400000     0.00000000     0.00000000
        0.00000000     9.29699974     0.00000000
        0.00000000     0.00000000     4.64899994
PRIMCOORD
23 1
Ti      4.41317501     6.96679799     2.29187403     0.01720506     0.30350547    -1.20971400
Ti      4.52104600     2.40728700     2.34990598    -0.73623901    -0.77649761     0.18649787
Ti      1.43269999     6.99936102     2.34516699     0.01876803     0.43252682    -0.90116402
Ti      1.42049399     2.28049502     2.26498399     0.93242042    -0.23010173     0.77355498
Ti      2.90018899     4.51405699     4.64173699     0.71104553    -0.03381208     1.41082422
Ti      2.93488101     0.08051400     0.01565502     0.87123406     0.52012742    -0.60510781
Ti      5.93071900     4.70848301     4.58738202    -0.82593789    -0.36775813     1.41682389
Ti      5.92167398     9.23864202     4.64087898    -0.76414500     0.61270568    -0.24395664
O       4.38053700     5.57023398     0.98565798     0.22093626    -0.10255697    -0.36252362
O       4.60759601     1.01735401     0.86039601    -0.75150288    -1.31543086     0.69218905
O       1.50672199     5.51559199     0.96401199     0.42517655     0.30976945    -0.30201912
O       1.48320700     1.00423999     0.77698598     0.19167658    -0.06518520     1.87164090
O       4.59850199     8.29824801     3.67568799    -0.64199467     0.23105510     0.65608561
O       4.40847603     3.63899103     3.86667398     0.57988014     1.23302260    -0.67839611
O       1.56114798     8.57030899     3.60337798    -0.37659450    -1.46005829     0.27098023
O       1.48042098     3.70073500     3.81971299    -0.02369838    -0.25390810    -0.77770140
O       2.98261200     1.46197402     3.37228500     0.06521503     0.07913807    -1.37301048
O       0.18130697     5.87680298     3.24161997    -0.65765192     1.42066049    -0.49092971
O       5.81321498     1.48966100     3.40886798     1.59165537     0.01922543    -2.04847527
O       2.93634497     7.90021401     1.43176499     0.72027991    -0.67995522     0.49077364
O       3.09755501     3.21558901     1.36723902    -1.61820716    -0.32954536     1.04237189
O       0.01904800     7.69810799     1.38558999     0.12546525     1.12229595    -0.29967350
O       0.08518399     3.33037602     1.49733402    -0.07498651    -0.66922318     0.48093017
