# total energy = -19961.90441611 eV

CRYSTAL
PRIMVEC
        7.60600008     0.00000000     0.00000000
        0.00000000     7.60600008     0.00000000
       -1.89786986    -1.89786986     4.85670466
PRIMCOORD
24 1
Ti      3.81046599     6.57343901     1.20456099    -0.66230176     0.58580602     0.71076399
Ti      3.79362302     2.85129503     1.22043599     0.08438569    -0.13563654    -0.10357256
Ti     -0.00879498     6.68512901     1.22416298     0.74096727     0.38249750    -0.51598949
Ti     -0.02612802     2.90374199     1.20490400     0.07381666    -0.79217209     0.25861888
Ti      5.70150524     2.86475322     3.66441979     0.56017725     0.10480052    -0.25625989
Ti      5.73823723    -0.94802178     3.62437780    -0.47186214    -0.12560255     0.38288394
Ti      1.91605023     2.85250123     3.64172581    -0.45318230    -0.34380033    -0.55963783
Ti      1.89815022    -0.99205875     3.69964379     0.28576125     0.32960835    -1.43032759
O       3.68919301     4.75848899     0.72405799     0.45480055    -0.24247132     1.01573114
O       3.73560202     0.89653400     0.69586099     0.21128974     0.33175702     1.65887149
O       0.02485498     4.77904102     0.78383899    -0.07305150    -0.38367558    -0.26508161
O      -0.02585999     0.98224802     0.82325200     0.23915125    -0.41151164    -0.71503485
O       5.74446025     4.73396824     3.94092480     0.11441645     0.52245016     0.91383597
O       5.72590624     0.91198624     3.99044484    -0.24004111     0.50493220     0.69098012
O       1.85574323     4.71180921     4.05491784     0.03274532     0.15257909    -0.19764026
O       1.83358123     0.93565322     4.15811179     0.49896775     0.11707677    -0.96801247
O       3.83654422     2.96455023     3.22652080    -0.40479617    -0.71497366     0.12152092
O       3.82326721    -1.00339775     3.23581882    -0.55724928     0.06124781    -0.42198632
O      -0.04599778     2.70421725     3.21552884     1.05536136     0.54546334    -0.44251221
O       0.00134025    -0.97810980     3.15510680     0.10413049     0.02499499     0.54869059
O       5.71815199     6.65123002     1.58777898    -0.81302297    -0.05444544     0.05412303
O       5.74604799     2.90751000     1.58660701    -0.98933772    -0.01093182    -0.06955197
O       1.86626798     6.68144800     1.62003398     0.89796223    -0.05820825     0.06039446
O       1.95389100     2.94254201     1.69809000    -0.68908881    -0.38978504    -0.47080773
