# total energy = -19516.72175325 eV

CRYSTAL
PRIMVEC
        5.17600016     0.00000000     0.00000000
        0.00000000     5.50899976     0.00000000
        0.00000000     0.00000000     9.26300011
PRIMCOORD
23 1
Ti      1.97739499     3.13330798     3.33101500    -1.58153859     1.06943456     4.02508200
Ti      3.33735798     2.30107001     5.84988701    -0.27762114    -0.15250658    -2.96133936
Ti      4.39414098     2.03447099     1.55732102     1.40342587     0.50131002    -1.77619843
Ti      0.89192799     3.37877700     7.77930902    -0.12667984    -0.43484390     2.58589259
Ti      1.99704102     0.29746598     1.30270098    -0.59148507    -1.20820708    -0.87974184
Ti      3.23047000     5.23520700     7.83867101    -1.15303787     0.32025544     1.52590118
Ti      0.58152500     0.57572199     5.99062498     0.73285800    -0.53029819    -4.11741832
Ti      4.45997201     4.88962901     3.30675799     1.07218255     1.03311514     3.92549106
O       1.64293100     1.96771200     4.91063603     0.55013555     0.92727898    -1.36684857
O       3.54724201     3.67134699     4.51304600    -0.78838897    -0.57373468    -0.18423375
O       0.27380599     2.43304502     0.07941702     0.19648866     0.54509927    -0.06486459
O       3.31518900     0.84789700     0.12201399     1.15245063     1.34613318     0.56087942
O       1.68920601     4.69970698     9.04867602     0.24491464    -0.40509725    -0.04822646
O       4.28624698     0.81711402     4.79814199    -0.66041843     0.23848148     0.16848625
O       0.95753898     4.83419801     4.33444598     0.17293092    -0.03628522     1.24385620
O       0.14311101     3.35543399     2.72223499     0.42085118    -1.88226239    -2.07804142
O       5.06053702     2.20178800     6.73344802    -0.71367757     0.05430583     0.43165984
O       2.70984399     1.69317299     2.48297300     0.21898325    -0.24012955    -0.80549427
O       2.55167000     3.66202198     6.94476199     0.18122684    -0.34192779     0.63604359
O       0.23475599     0.64547898     2.12791999     0.15408293    -0.25273645    -0.68388593
O       5.02654003     4.85971102     7.39599900    -0.61710844     0.49501930    -0.66434682
O       2.36145798     0.95821802     6.84095599    -0.20493062    -0.46038679     1.01088435
O       2.88111702     4.41736499     2.17676802     0.21435526    -0.01201708    -0.48353675
