# total energy = -19960.74031218 eV

CRYSTAL
PRIMVEC
        7.60600008     0.00000000     0.00000000
        0.00000000     7.60600008     0.00000000
       -1.89786986    -1.89786986     4.85670466
PRIMCOORD
24 1
Ti      3.73867299     6.65699101     1.21390102     0.87945002    -0.56824461    -0.21791316
Ti      3.84929199     2.90086697     1.23979102     0.18389745     0.65626070    -0.66657623
Ti     -0.04005702     6.58207401     1.19160202    -0.78562709     0.51746247    -1.12123948
Ti      0.05719702     2.83505399     1.22256000    -0.48022106    -0.42750828     1.38465321
Ti      5.76065625     2.70960925     3.63972081    -0.41965253     1.86893147     0.11372533
Ti      5.70851721    -0.96323976     3.64819680    -0.18762761    -2.09832383     0.46552822
Ti      1.87308823     2.94219323     3.55133080     0.72191179    -0.94230503     0.76822251
Ti      1.82572824    -0.95616979     3.59497480     0.26547036     1.00398762     0.89168128
O       3.85288098     4.79239603     0.71850602    -0.03500121     1.20627720     0.62045190
O       3.81634901     1.08849400     0.74215802     0.17125276    -1.68240609     0.33631147
O      -0.04510400     4.71337102     0.76403701     0.11848419     0.03331662    -0.21978544
O      -0.22957101     0.92475402     0.90350401     0.71760853    -1.09377803    -0.18457776
O       5.68519520     4.65735121     4.05547379     0.18526991     0.83605544     0.85823764
O       5.93353221     0.79189523     4.26784283     0.01644915     1.60972072    -3.20015019
O       1.88023022     4.77606625     4.00015884     0.33658195     0.89749891     0.86008601
O       1.69317024     1.06247123     4.06885779     0.83245152    -0.86025261    -0.59003523
O       3.83478423     2.95301522     3.30479580     0.39090373    -1.08780587    -1.21732832
O       3.86892822    -0.96750778     3.17831381    -1.56385711     0.49929582    -0.10939791
O       0.01247620     2.94826924     3.24512281    -0.15740222    -0.38820047    -0.01008696
O       0.03183821    -1.16347577     3.33784281    -0.63338019     0.53145159    -0.74300718
O       5.70902998     6.51448400     1.71237398     0.00557852     0.59336661    -0.34358487
O       5.81864201     2.93589798     1.61116401    -1.97151107    -0.36048628     0.69896005
O       1.82735901     6.69172901     1.59343102     1.24932751     0.12850507     0.32016288
O       1.94289301     3.11002799     1.53830001     0.15964243    -0.87281966     1.30566246
