# total energy = -19517.49149222 eV

CRYSTAL
PRIMVEC
        5.93400000     0.00000000     0.00000000
        0.00000000     9.29699974     0.00000000
        0.00000000     0.00000000     4.64899994
PRIMCOORD
23 1
Ti      4.51135300     7.07613400     2.27989700     1.65954589    -0.34404278     0.26290722
Ti      4.40438601     2.23966000     2.32363101    -0.31977825     0.61878788    -0.32624946
Ti      1.44213803     7.12487800     2.15208201    -1.38296554    -0.26822067     0.39086953
Ti      1.41926503     2.26119302     2.41407201     0.79776141     0.73066408    -0.68629814
Ti      3.02195501     4.59186600     0.15020400     0.08861979    -1.56036992     0.46089124
Ti      2.89087701     9.19395301     4.60064002     0.53092889     1.22154519     0.11229503
Ti      0.05730900     4.67792297     0.05320703    -0.11756374    -0.83947963    -0.85379631
Ti      5.89981298     0.09315599     4.59302701    -0.23269032    -0.31400895     1.19616428
O       4.47838002     5.58180698     0.98505303    -0.42932811    -0.09983366    -0.50756886
O       4.36759100     0.92324401     0.74765998     0.84246520     0.47743269     1.60242444
O       1.51528598     5.57199900     0.99245600     0.25492035     0.11582001    -0.69266676
O       1.57302901     0.90103402     0.96827102    -0.40555928    -1.18379238    -0.70920050
O       4.58065400     8.31768199     3.72809299    -1.18958971     0.10944959     0.12633326
O       4.46182101     3.75347000     3.78730200    -0.14063862     0.23458703    -0.63219182
O       1.54059902     8.33178801     3.60241599    -0.29732402     0.26844358     1.05839475
O       1.47542798     3.59561500     3.90471198     0.03329837     1.64490988    -0.83802619
O       2.83362299     1.41205102     3.39811801     1.61870519     0.15980749    -1.63562562
O       5.93001800     6.12530700     3.15199301     0.41374696    -0.63130659     0.53626058
O       0.01668099     1.32044700     3.23335798    -0.80174894     0.68294645    -0.87047635
O       2.99942401     7.83888602     1.37537300     0.00994477    -0.23392394     0.02758178
O       2.96790299     3.21411398     1.35254398     0.54912896    -0.38010021     1.43667487
O       5.90190202     8.06937298     1.43491401     0.08292248    -0.84298276    -0.11937688
O       0.11574699     3.14274400     1.36105198    -1.56480173     0.43366865     0.66067966
