# total energy = -4986.19831286 eV

CRYSTAL
PRIMVEC
        3.71889943     0.00000000     0.00000000
        0.00000000     4.30688223     0.00000000
        0.00000000    -0.00006795     5.18354984
PRIMCOORD
6 1
Ti      1.85944977     2.15340697     2.59177492     0.00000000     0.00000000     0.00000000
Ti      0.00000000     0.00000000     0.00000000     0.00000000     0.00000000     0.00000000
O       1.85944977     0.83933460     1.01019750    -0.00000000     0.42182280     0.55889993
O       1.85944977     3.46747927     4.17335228    -0.00000000    -0.42182280    -0.55889993
O       0.00000000     1.31404490     3.60197357     0.00000000    -0.42201563     0.55927994
O       0.00000000     2.99276903     1.58157627     0.00000000     0.42201563    -0.55927994
