# total energy = -19923.96654155 eV

CRYSTAL
PRIMVEC
        6.25422355     0.00000000     0.00000000
        1.95300485     6.36342942     0.00000000
        0.00000000     0.00000000    11.32463801
PRIMCOORD
24 1
Ti      3.42420406     3.77096241     4.20135993    -0.12493432    -2.11060754     0.75254803
Ti      4.78302423     2.59246715     7.12327814     0.12493432     2.11060754    -0.75254803
Ti      6.18952042     2.59246934     1.46091386    -0.19128860    -0.70925244    -0.02435247
Ti      2.01770798     3.77096046     9.86372434     0.19128860     0.70925244     0.02435247
Ti      2.44770178     0.58924781     1.46095926    -0.12493432    -2.11060754    -0.75254803
Ti      5.75952655     5.77418194     9.86367893     0.12493432     2.11060754     0.75254803
Ti      1.04120556     0.58924543     7.12323274     0.19128860     0.70925244    -0.02435247
Ti      7.16602276     5.77418432     4.20140533    -0.19128860    -0.70925244     0.02435247
O       2.66718742     2.24067172     5.77887610     1.82406159     2.08590617    -0.70951238
O       5.54004089     4.12275790     5.54576198    -1.82406159    -2.08590617     0.70951238
O       1.83534118     2.24069739     0.11659352    -0.57131605    -0.18757567     1.16876839
O       6.37188720     4.12273229    11.20804424     0.57131605     0.18757567    -1.16876839
O       4.56353858     0.94104312     0.11655678    -1.82406159    -2.08590617    -0.70951238
O       3.64368973     5.42238651    11.20808098     1.82406159     2.08590617     0.70951238
O       5.39538489     0.94101750     5.77891284     0.57131605     0.18757567     1.16876839
O       2.81184337     5.42241220     5.54572523    -0.57131605    -0.18757567    -1.16876839
O       1.41515867     3.87059855     3.05906725     0.52942505     1.95188171     1.95704552
O       6.79206963     2.49283108     8.26557082    -0.52942505    -1.95188171    -1.95704552
O       4.11941295     2.49277174     2.60328780     0.74408319     1.76937626     0.97769319
O       4.08781535     3.87065788     8.72135009    -0.74408319    -1.76937626    -0.97769319
O       0.43865630     0.68888377     2.60325163     0.52942505     1.95188171    -1.95704552
O       7.76857194     5.67454587     8.72138626    -0.52942505    -1.95188171     1.95704552
O       3.11131304     0.68894309     8.26560693    -0.74408319    -1.76937626     0.97769319
O       5.09591527     5.67448653     3.05903108     0.74408319     1.76937626    -0.97769319
