# total energy = -19922.42818446 eV

CRYSTAL
PRIMVEC
        6.91739327     0.00000000     0.00000000
        0.00002316     3.54476212     0.00000000
        0.00000000     0.00000000    10.45108202
PRIMCOORD
24 1
Ti      2.50723619     2.10062281     3.87727689    -0.43226071     0.97220337    -0.04943410
Ti      4.41018040     1.44413946     6.57380524     0.43226071    -0.97220337     0.04943410
Ti      5.96581442     1.44414072     1.34822242    -0.43279036    -0.97220774     0.05021778
Ti      0.95160222     2.10062171     9.10285987     0.43279036     0.97220774    -0.05021778
Ti      2.50722467     0.32824181     1.34826433    -0.43226071     0.97220337     0.04943410
Ti      4.41019197     3.21652057     9.10281795     0.43226071    -0.97220337    -0.04943410
Ti      0.95159064     0.32824045     6.57376333     0.43279036     0.97220774     0.05021778
Ti      5.96582595     3.21652193     3.87731880    -0.43279036    -0.97220774    -0.05021778
O       2.18940688     1.24817105     5.33310717     4.06402420    -0.89513247     1.83322706
O       4.72800976     2.29659122     5.11797496    -4.06402420     0.89513247    -1.83322706
O       1.26934669     1.24818532     0.10759974    -4.06431242    -0.89566752     1.83352376
O       5.64807001     2.29657696    10.34348208     4.06431242     0.89566752    -1.83352376
O       4.72799818     0.52421016     0.10756584    -4.06402420     0.89513247     1.83322706
O       2.18941841     3.02055211    10.34351602     4.06402420    -0.89513247    -1.83322706
O       5.64805848     0.52419590     5.33314106     4.06431242     0.89566752     1.83352376
O       1.26935805     3.02056643     5.11794106    -4.06431242    -0.89566752    -1.83352376
O       0.25133908     2.15612529     2.82309798     0.72118776    -0.21388167     0.90953271
O       6.66607751     1.38863703     7.62798415    -0.72118776     0.21388167    -0.90953271
O       3.71004437     1.38860394     2.40247630     0.72219101     0.21409533    -0.91057221
O       3.20737221     2.15615838     8.04860567    -0.72219101    -0.21409533     0.91057221
O       0.25132756     0.38374418     2.40244293     0.72118776    -0.21388167    -0.90953271
O       6.66608908     3.16101809     8.04863904    -0.72118776     0.21388167     0.90953271
O       3.20736069     0.38377727     7.62801747    -0.72219101    -0.21409533    -0.91057221
O       3.71005595     3.16098500     2.82306461     0.72219101     0.21409533     0.91057221
