# total energy = -39023.72691288 eV

CRYSTAL
PRIMVEC
        7.60600008     0.00000000     0.00000000
        0.00000000     7.60600008     0.00000000
       -3.79573973    -3.79573973     9.71340985
PRIMCOORD
46 1
Ti      1.81764845     3.90772046     6.37369364     0.85727476     1.20148801    -3.24893098
Ti      3.91721300     0.04476199     1.66141701    -0.50899660    -0.89440716    -0.85200862
Ti      1.61715843     0.59046947     6.31117061     1.60501791    -1.03458581    -1.94049918
Ti      4.23275399     3.46259900     1.68698702    -0.38611582    -1.61260319    -0.23178169
Ti     -1.96858255     3.81798544     6.51952262    -1.74907893     0.57360433    -1.12820537
Ti      0.04817302    -0.31871002     1.24983300    -0.30548368     0.75793270     0.66250411
Ti     -2.16612357     0.78652546     6.07541262    -0.93292718    -0.47510250    -1.03458967
Ti      0.44292099     3.61381399     0.98936302    -1.63079092    -1.19910665     0.75279435
Ti      3.72238148     1.70376744     8.27560261     0.00113309     0.90266683    -1.37110143
Ti      5.76257002     1.75719503     3.05403003     3.11878966     0.54618710     1.80315028
Ti      3.93253544    -2.00798054     8.43394261     0.49772796    -0.60552844    -0.18026654
Ti      5.58093802     5.84861403     3.61011700    -0.94404438    -0.45924650     2.37245136
Ti     -0.11909854     2.00398446     8.28636364    -0.73327735    -1.33295113     1.88220736
Ti      1.99003000     1.77964601     3.42240698    -2.26795217    -0.96189582     1.29889017
Ti     -0.08576757    -1.68784857     8.39680262    -0.54332109     0.70957666     1.33951568
Ti      1.85577302     6.05948698     3.25410501     0.72833749     0.63505809     3.90990220
O       1.96117201     4.96924299     4.76597600    -1.07207765    -1.08819462     1.53363995
O       3.89814997     1.54685199     0.47748102    -0.22452218     0.99101331    -1.92048365
O       5.07154644     2.33388747     5.40467860     0.80648723     1.01120728    -1.38649952
O      -0.02478100     5.49420402     0.34007301    -0.28778625    -1.57704276     4.41930863
O       4.99970444     5.06298145     5.15544565     2.64574250     0.12325616    -0.24542577
O       0.92310500     2.03800299     0.34293400     0.04340718    -3.78177662     0.77368817
O       3.99422845     3.68885646     9.13741264    -1.06367271     1.54874956     0.42016109
O       5.31482002     3.53340900     3.21789500    -1.35777720     2.83999070    -0.09597546
O      -3.21177956    -0.17028056     8.75395260    -1.19118559     1.92457247    -0.50330906
O       5.34633702    -0.02450398     4.36944100     1.08552144    -0.11399067     0.41210222
O       4.01858998     6.43017802     0.39830701    -0.62625077    -0.74744851    -2.81767454
O       2.01526747     2.30999946     5.37821863    -1.00569277     0.14444643    -0.81732520
O      -0.18566454     0.17182343     9.13330665    -0.23944076    -0.30555387    -0.26135453
O       2.49492198    -0.00039699     4.47265401    -2.63036884    -0.06794348     0.63535377
O       1.73161444     1.67513646     7.86028060     0.36929848     1.05643300     0.49558803
O       3.86373800     1.48796700     2.86428199    -0.77224526     2.33308904     0.80804609
O       1.41178447    -1.22964955     7.45863861     0.68070239    -0.05862477    -0.59682140
O       3.77738702     5.72169002     2.91161901     0.53824265     0.50218497    -1.91591917
O      -2.10370553     2.11670545     7.88736564     1.43594519     0.53129475    -0.19793157
O       0.10947301     1.83412200     3.20766399    -0.06127224    -0.71379070     1.38784703
O      -2.03498657    -2.24497056     7.65835863     0.95335692     1.44360503     0.54514324
O      -0.05316998     6.26870001     3.25857100    -1.18402687    -1.65650505    -1.19594908
O       3.59678443     3.87228046     6.80743362    -1.03488072     0.66642247     1.28418089
O       5.79275900     0.29022499     1.84154598     1.15013766    -2.16996894    -1.07152615
O       3.66352247     0.59039247     6.67131960    -0.93411581    -0.47033388     0.16933446
O       6.27678298     2.77654699     1.38347201     0.25618790     1.40059431    -2.45270708
O      -0.06518654     4.09556547     7.21361362     0.93915388    -1.31978965    -0.05169128
O       1.67524500     0.13579900     2.19397301     1.65459112    -0.53460788    -1.83479183
O      -0.37522853     1.23757445     6.40398063     2.66360601    -1.38790746     0.48055556
O       1.92332202     3.15974900     2.13080300     1.65664286     2.72553363    -0.03359507
