# total energy = -4978.46260562 eV

CRYSTAL
PRIMVEC
        4.64602845     0.00000000     0.00000000
        0.00000000     2.76123919     0.00000000
        0.00000000    -0.00011023     6.29521612
PRIMCOORD
6 1
Ti      2.32301422     1.38056431     3.14760777     0.00000000     0.00000000     0.00000000
Ti      0.00000000     0.00000000     0.00000000     0.00000000     0.00000000     0.00000000
O       2.32301422     0.53810330     1.22684480     0.00000000     0.08530204     2.79450041
O       2.32301422     2.22302531     5.06837074     0.00000000    -0.08530204    -2.79450041
O       0.00000000     0.84241740     4.37445396     0.00000000    -0.08522182     2.79386612
O       0.00000000     1.91871121     1.92076158     0.00000000     0.08522182    -2.79386612
