# total energy = -19958.65339524 eV

CRYSTAL
PRIMVEC
        7.60600008     0.00000000     0.00000000
        0.00000000     7.60600008     0.00000000
       -1.89786986    -1.89786986     4.85670466
PRIMCOORD
24 1
Ti      3.70109802     6.57601499     1.36169398    -2.35603948     0.96388868    -0.76245681
Ti      3.70254701     3.00095699     1.24803200     2.17842915    -1.11253089     0.52631838
Ti     -0.12547502     6.62297000     1.11027801     2.08881949    -1.56161871     0.94248835
Ti      0.08443002     2.76092700     1.14872300    -0.43750293     1.20402157    -0.86964074
Ti      5.79862323     2.91118625     3.57976979    -0.93910401    -0.98389058    -0.49044145
Ti      5.81858523    -1.03199078     3.61093283    -0.39177687     0.98106520    -0.26489186
Ti      1.81771020     2.93270524     3.73772481     2.37493993     0.44179488    -0.76024618
Ti      1.81511824    -0.94257179     3.74862883     0.84194892    -0.44653111     0.08586511
O       3.69627700     4.83497299     0.73638999     0.53313798    -0.24894279     1.15304044
O       3.61699699     1.17543602     0.78811098     0.78475317    -2.84667634     1.17774823
O       0.13653302     4.69345703     0.59741799    -0.57486983     0.02551847     0.93517819
O       0.36975001     0.81799097     0.64955698    -1.45653485     1.44176514     1.17371109
O      -1.46553279     4.68708023     4.13921080    -1.14519266     0.42310449    -1.20010141
O       5.87473025     0.93053523     3.85024679    -0.74876337    -1.04286631     0.43487809
O       1.51667322     4.77019921     4.18179782     0.75043124     0.78336272     0.66359554
O       1.89872824     1.04167721     4.15011979     0.32072698    -0.01394413    -1.57624546
O       3.76343124     3.17910620     3.36158583     1.16610782    -0.67239772    -1.28445445
O       3.69451225     6.28041023     3.34596484     1.38266497     1.11178759    -0.37781732
O       0.12487022     2.83375523     3.10042379    -1.23065590    -0.61051099    -0.75271721
O       0.01122321    -1.05827676     3.18878184    -1.88262980     0.93957632    -1.12939348
O       5.55745901     6.55310299     1.49876798     2.20907106     0.45174145     0.84283750
O       5.90641701     3.08271699     1.51695702    -1.06514801    -0.91557686     0.57289548
O       1.80316899     6.30046102     1.76100399     0.41637668     1.48231300    -0.30592385
O       2.00145801     2.94515398     1.44641002    -2.81918995     0.20554692     1.26577307
