# total energy = -19897.15798500 eV

CRYSTAL
PRIMVEC
        8.63056712     0.00000000     0.00000000
        0.00002717     3.48416789     0.00000000
        0.00000000     0.00000000    13.35796608
PRIMCOORD
24 1
Ti      3.12818170     2.06471462     4.95571016     0.08814671    -0.05983808     2.34888410
Ti      5.50241284     1.41945315     8.40225604    -0.08814671     0.05983808    -2.34888410
Ti      7.44331796     1.41945434     1.72321957     0.07980887     0.06001831    -2.34854729
Ti      1.18727658     2.06471362    11.63474675    -0.07980887    -0.06001831     2.34854729
Ti      3.12816823     0.32263074     1.72327312     0.08814671    -0.05983808    -2.34888410
Ti      5.50242630     3.16153716    11.63469320    -0.08814671     0.05983808     2.34888410
Ti      1.18726311     0.32262949     8.40220248    -0.07980887    -0.06001831    -2.34854729
Ti      7.44333142     3.16153840     4.95576371     0.07980887     0.06001831     2.34854729
O       2.73163867     1.22683472     6.81646783     2.00341821     0.59258936    -1.85934228
O       5.89895593     2.25733305     6.54149837    -2.00341821    -0.59258936     1.85934228
O       1.58371468     1.22684875     0.13752775    -2.00504315     0.59255311    -1.86183111
O       7.04687998     2.25731902    13.22043808     2.00504315    -0.59255311     1.86183111
O       5.89894246     0.51524910     0.13748442    -2.00341821    -0.59258936    -1.85934228
O       2.73165207     2.96891867    13.22048141     2.00341821     0.59258936     1.85934228
O       7.04686651     0.51523507     6.81651121     2.00504315    -0.59255311    -1.86183111
O       1.58372796     2.96893276     6.54145498    -2.00504315     0.59255311     1.86183111
O       0.31358502     2.11926841     3.60831987    -1.55073342     0.45911923     0.35856927
O       8.31700952     1.36489936     9.74964633     1.55073342    -0.45911923    -0.35856927
O       4.62887994     1.36486698     3.07070564    -1.54888788    -0.45897191    -0.35883820
O       4.00171466     2.11930085    10.28726031     1.54888788     0.45897191     0.35883820
O       0.31357155     0.37718446     3.07066298    -1.55073342     0.45911923    -0.35856927
O       8.31702298     3.10698331    10.28730297     1.55073342    -0.45911923     0.35856927
O       4.00170119     0.37721685     9.74968886     1.54888788     0.45897191    -0.35883820
O       4.62889341     3.10695092     3.60827727    -1.54888788    -0.45897191     0.35883820
