# total energy = -4987.20637944 eV

CRYSTAL
PRIMVEC
        3.50326704     0.00000000     0.00000000
        0.34944494     3.48579520     0.00000000
       -1.92638706    -1.74292571     4.47656146
PRIMCOORD
6 1
Ti      0.26194947     2.61447900     1.11914015     0.00158406    -0.00141616    -0.00208182
Ti      1.66437514    -0.87160979     3.35742078    -0.00158406     0.00141616     0.00208182
O       0.08739817     0.87144329     0.72919521     0.00054996     0.00276214     1.65820814
O       1.83892634     0.87142583     3.74736582    -0.00054996    -0.00276214    -1.65820814
O      -0.08737878    -0.87142575     2.96747584     0.00276548     0.00057181     1.65501123
O       2.01370324     2.61429482     1.50908518    -0.00276548    -0.00057181    -1.65501123
