# total energy = -39026.97573738 eV

CRYSTAL
PRIMVEC
        7.60600008     0.00000000     0.00000000
        0.00000000     7.60600008     0.00000000
       -3.79573973    -3.79573973     9.71340985
PRIMCOORD
46 1
Ti      1.92264647     4.36153843     6.30739864     0.11033893     1.01751702     1.20567762
Ti      3.62035398    -0.15646300     1.44211702     0.41471369    -4.74124120     0.75701867
Ti      2.00499746     0.31883543     6.23370261     2.28854980     4.07544659     0.36534515
Ti      3.69437302     2.94259398     1.13790000    -1.03286806     4.02472308    -1.03010592
Ti     -1.89096553     4.46781944     6.14087661     1.92780435     1.13200546    -0.62507886
Ti     -0.18859300     6.89096499     1.24058399    -0.63917597     1.11682566     2.02557959
Ti     -1.69055954     0.94297947     5.94282065    -2.33989115    -1.07470121     0.91552570
Ti     -0.23178101     3.08093901     1.02551101     0.19462435     0.06492681    -1.99326106
Ti      3.86254746     1.44167346     8.41027865     0.75674742    -2.94386665     0.44392272
Ti      5.77204102     2.63812100     3.42954500    -1.59760311     1.61051802     1.26536992
Ti      3.97312846    -2.62843854     8.49827162     0.25875772     2.66900765     0.67017706
Ti      5.53755401    -1.14752002     3.80283499     1.35041382    -1.78009648    -3.23874863
Ti      0.12895944     1.11430044     8.40297960    -0.65102927    -0.87584225     0.28230312
Ti      1.69407799     2.45054798     3.57709703     0.66677831     1.04232381    -0.84868676
Ti      0.23151446    -2.84081657     8.50292763    -0.37392570     1.37262790     0.20694817
Ti      1.89358401    -1.18243598     3.77279000    -1.10121006     0.66978239    -1.56800481
O       1.96470045    -1.34442254     5.84908864    -0.61884882    -1.95472150    -1.08712710
O       3.29941301     1.36675397     0.64387700    -0.37158625    -2.57495177    -1.98871869
O      -1.98537557     2.70705745     5.57215162     0.29428009    -0.31810317    -1.31930834
O       7.16610498     5.05319003     0.75493998     1.37509899    -0.71576633    -0.20335737
O      -1.62629853    -1.33032255     5.48649062    -0.14930144     1.48324322     2.15276028
O       0.10766900     1.18360901     0.81581299    -0.61234444     0.53318452    -1.74930571
O       3.81647247     3.20685943     8.93850364     0.45348106    -0.73272096    -0.32578152
O       6.00819700     4.57386498     3.69775103    -1.43312701    -0.75625839     0.76064753
O       3.80766146    -0.65204057     8.70021661     0.86741082    -0.48894018     1.93444037
O       5.53845599     0.69824499     3.95520502     0.11629438     1.75973796     1.42228080
O      -0.12491853     2.64684845     9.59791263     0.24628349    -0.17588358    -1.04176356
O       1.72478699     4.18526499     4.56362497     0.23510690    -1.33232147    -3.27047015
O       0.25736842    -0.85803953     8.68014862    -0.64846742     2.56315992    -0.05506508
O       2.22529400     0.67033401     4.08346002    -0.87855090     0.57667268     2.16669592
O       2.09540845     1.40898544     8.07228562    -3.96478627    -0.24793543    -1.54760902
O       4.01716400     2.61816398     2.88273397    -3.49656019    -0.24544171     3.75094446
O       2.10717047    -2.39869856     8.27779462    -0.87959143    -2.59933407    -1.05374285
O       3.55443898     6.13009499     3.05220902     1.61063141    -0.08338913     1.30480011
O      -1.97830655     1.30305744     7.99445360     3.81061464    -0.28203418    -0.57284791
O      -0.09512199     2.72758799     2.84831200    -0.12159651    -1.00142371     2.91858549
O      -1.54342753    -2.78184755     8.02517461    -3.60416783     0.22247095     0.16140646
O      -0.13396201    -0.75611999     3.15450602    -0.15055306    -1.46603740     0.96582215
O       3.97333447     4.75145543     6.47002761    -1.81730215    -0.84358800     0.78624158
O       5.51161601    -0.37997303     1.52170401     0.49935676    -0.09659381     0.50448225
O       3.92858243     0.78514743     6.45149164    -1.44787769    -0.11276066    -0.47513978
O       5.48517398     2.81254099     1.43671798     4.38259943     0.48895227    -1.98408736
O      -0.01262358     4.20676546     6.50705965     3.60182607    -0.32833899     0.96292837
O       1.76442099    -0.46197100     1.93848501     0.02887376    -0.91328909    -1.49914062
O       0.13438546     0.91174547     6.26103461     0.51982172     0.11893156     0.56358834
O       1.76016302     2.74977502     1.78251102     1.91995683     2.14352333    -1.01614046
