# total energy = -19517.41899167 eV

CRYSTAL
PRIMVEC
        5.17600016     0.00000000     0.00000000
        0.00000000     5.50899976     0.00000000
        0.00000000     0.00000000     9.26300011
PRIMCOORD
23 1
Ti      1.79024400     3.18552899     3.43492398     0.26513174     0.40983168     2.88899671
Ti      3.36926001     2.20562999     5.83100899     0.68355605     0.16299180    -2.71671397
Ti      4.35160302     2.08902800     1.49912602     0.76919748     0.37081826    -1.74579563
Ti      0.90704002     3.43294999     7.70363599    -2.38894550    -0.61115145     2.34259647
Ti      1.98652002     0.25261599     1.35424502     0.55131928     0.90076936    -1.73686285
Ti      3.23501600     5.08545402     7.86295300     0.21974121     1.49090743     2.16470486
Ti      0.75389099     0.51859598     5.93688698    -0.31570150    -0.24173752    -2.92530945
Ti      4.50414598     5.01137698     3.31889202    -0.09824523    -0.41945815     3.19068441
O       1.69879100     1.79921202     4.86954001    -0.24112072     0.91236375    -1.08534532
O       3.48966102     3.51426199     4.49629198     0.19560729    -0.08574555     0.06453163
O       5.16769800     2.89554599     0.00550699    -0.43128832    -0.80700890     0.23540926
O       3.42216901     0.86965799     0.28796101     0.29180540    -0.32847629    -1.04386056
O       1.84572199     4.58618602     9.07220398     0.14871909    -0.07882671     0.23027554
O       4.23505602     0.76179600     4.74694198     0.21078246    -0.20980004    -0.03477444
O       0.96753699     4.66431000     4.42257902    -0.31867704     0.60703768     1.36222161
O       0.12214898     3.43811598     2.56214998    -0.09821258    -1.14274754    -0.89157123
O       5.02876998     1.95169899     6.80491600     0.00397081     1.76045941     0.34600377
O       2.58248701     2.05437700     2.24068899     0.47861437    -0.98162955    -0.96285124
O       2.59611702     3.59053601     6.93558299     0.82898490    -0.63285568    -0.08220463
O       0.29873998     0.62885800     2.14313601    -0.47447027     1.02419470    -0.79636505
O       5.08814901     4.98686898     7.36590300    -0.46787076    -1.02334957    -0.20078446
O       2.40858698     0.88365600     6.94573801    -0.28264328    -0.21811088     0.55541377
O       2.82211000     4.63200902     2.37602702     0.46974509    -0.85847675     0.84160028
