# total energy = -19922.73614535 eV

CRYSTAL
PRIMVEC
        6.29389942     0.00000000     0.00000000
        1.32649069     6.56595980     0.00000000
        0.00000000     0.00000000    11.32200519
PRIMCOORD
24 1
Ti      3.06731287     3.89098170     4.20038332    -0.16678881    -1.73768509     0.73953310
Ti      4.55307693     2.67497826     7.12162232     0.16678881     1.73768509    -0.73953310
Ti      5.96849545     2.67498061     1.46057426     0.08429416    -0.20826740    -0.30188619
Ti      1.65189438     3.89097960     9.86143150    -0.08429416     0.20826740     0.30188619
Ti      2.40406768     0.60800204     1.46061966    -0.16678881    -1.73768509    -0.73953310
Ti      5.21632214     5.95795810     9.86138610     0.16678881     1.73768509     0.73953310
Ti      0.98864908     0.60799950     7.12157692    -0.08429416     0.20826740    -0.30188619
Ti      6.63174074     5.95796064     4.20042871     0.08429416    -0.20826740     0.30188619
O       2.45913871     2.31198609     5.77753276     1.75324978     1.91259087    -0.51351968
O       5.16125109     4.25397386     5.54447288    -1.75324978    -1.91259087     0.51351968
O       1.62201283     2.31201254     0.11656640    -0.90245574     0.38426539     0.75178339
O       5.99837705     4.25394748    11.20543891     0.90245574    -0.38426539    -0.75178339
O       4.49800588     0.97099401     0.11652965    -1.75324978    -1.91259087    -0.51351968
O       3.12238392     5.59496594    11.20547567     1.75324978     1.91259087     0.51351968
O       5.33513184     0.97096763     5.77756951     0.90245574    -0.38426539     0.75178339
O       2.28525791     5.59499239     5.54443613    -0.90245574     0.38426539    -0.75178339
O       1.03551869     3.99378888     3.05835617     0.47684443     1.20837265     1.41358919
O       6.58487111     2.57217108     8.26364946    -0.47684443    -1.20837265    -1.41358919
O       3.89526546     2.57210975     2.60268266     0.64126139     1.41970996     0.59566132
O       3.72512434     3.99385020     8.71932278    -0.64126139    -1.41970996    -0.59566132
O       0.37227348     0.71080903     2.60264649     0.47684443     1.20837265    -1.41358919
O       7.24811633     5.85515099     8.71935896    -0.47684443    -1.20837265     1.41358919
O       3.06187913     0.71087029     8.26368558    -0.64126139    -1.41970996     0.59566132
O       4.55851068     5.85508966     3.05832000     0.64126139     1.41970996    -0.59566132
