# total energy = -4989.84181431 eV

CRYSTAL
PRIMVEC
        3.00489659     0.00000000     0.00000000
        0.70228351     4.65555117     0.00000000
       -0.00000441    -0.00006112     4.72159501
PRIMCOORD
6 1
Ti      1.85358757     2.32774494     2.36079745     0.00000000     0.00000000     0.00000000
Ti      0.00000000     0.00000000     0.00000000     0.00000000     0.00000000     0.00000000
O       1.63931201     0.90728639     0.92016929    -0.56990245     0.13093965     0.08720337
O       2.06786313     3.74820350     3.80142556     0.56990245    -0.13093965    -0.08720337
O       0.21427364     1.42043379     3.28096775     0.56994873    -0.13074476     0.08701233
O       0.48800502     3.23505619     1.44062710    -0.56994873     0.13074476    -0.08701233
