# total energy = -39033.12484105 eV

CRYSTAL
PRIMVEC
        7.60600008     0.00000000     0.00000000
        0.00000000     7.60600008     0.00000000
       -3.79573973    -3.79573973     9.71340985
PRIMCOORD
46 1
Ti      1.97071746     4.73173146     6.04734961    -0.20193657     0.61010809     0.06866031
Ti      3.81062199     6.72220401     1.14744001     0.64907652     1.22938295     0.38934461
Ti      1.95659743     0.71661046     5.97155561    -0.27125046    -1.02972128     1.35194568
Ti      3.81196600     3.09840101     1.30905900     0.06243644    -1.97987847     1.09462521
Ti     -1.81072157     4.81294445     5.99702263    -0.71873981     0.34072889    -0.02381511
Ti      0.05391602     6.87074301     1.08126200    -1.83428378    -0.05501880     0.77177964
Ti     -1.91618353     0.93059645     6.10957863     0.24003802    -0.56825566     0.07285841
Ti     -0.22254798     3.07375802     1.25562998     0.85397758    -2.59721651     0.68758086
Ti      3.81287243     0.94790743     8.52717464     0.69582845    -1.48667128    -1.43176843
Ti      5.57516798     2.89029999     3.88153301     0.42434788    -0.94278943    -0.99999392
Ti      3.93765247    -2.84128955     8.41195863     0.08356757     1.36101833     0.24293514
Ti      5.72437702    -0.91695500     3.66782198     0.10689957     0.51848706    -0.36755322
Ti      0.06085343     1.04911342     8.41576061    -0.75479929    -1.28745622    -0.73871755
Ti      1.76180098     2.77052601     3.43705000    -0.49200597    -0.64232866     1.60866374
Ti      0.07819446    -2.86779355     8.46387065    -0.41218836    -0.94089015     1.85893244
Ti      1.86751398    -1.13288298     3.50420799    -0.09472822    -0.62061928     1.51572141
O       1.86007444    -1.09489556     5.77937864    -0.19876383     0.10610098    -1.07326653
O       3.74376701     0.94654702     0.95837699    -0.35677669    -0.38135028    -2.02397727
O      -2.08415555     2.75579547     5.89247261    -0.12586146     1.95800480    -2.77748433
O      -0.02321802     4.78298302     0.83000700    -0.56386679     1.31841874    -0.82706866
O      -1.79037857    -0.88240052     5.63240961     0.02728893    -2.82506030     0.49478456
O      -0.25112900     1.14658798     0.71605202     0.72063112    -2.97021018     0.22199710
O       3.81645644     2.87388645     8.90112161    -0.08506318     0.30572536     0.51486591
O       5.60474502     4.82702501     3.98120800    -0.33317884    -2.19098540     1.61075430
O      -3.38094853    -0.94792055     8.96762263    -1.04669057     1.06549408    -0.34196765
O       5.97391801     0.89726898     4.13826002    -0.96367091     1.64063953    -0.93069932
O       0.26066345     2.79156144     8.81448063    -0.16966870     2.20077976     1.39381071
O       1.73051899     4.51471900     4.03438999     1.23971287     0.97980767     1.04463266
O      -0.13337256    -0.67322554     9.26173061     0.10638895    -0.36346568    -2.72561616
O       1.80859798     0.95720999     4.13919201    -0.13195035     0.17520378    -0.37492766
O       1.90383443     0.92474545     7.99395760     1.61393553     0.03659041     0.65724852
O       3.71044302     2.80811099     3.20440500     0.14706921     0.34928861     1.57541216
O       1.99982147    -2.70690055     7.99812662    -0.97343493    -0.38538948     0.10656044
O       3.74119902    -1.06628703     3.55047999     0.12723957     0.48628243    -1.71399930
O      -1.86794955     1.17465046     7.95898761    -0.92068462    -0.14442766     2.00795698
O      -0.24035897     3.02765398     3.34055601     0.92564633    -0.43050799    -0.64278014
O      -1.73229454     4.39138445     8.07672262    -0.55971754     1.60448107     0.05507459
O       0.03182901    -1.29825399     3.42085501    -0.83617088     1.59738508    -1.37930531
O       3.92506943     4.76786046     6.45369964    -1.32231370    -0.25989209     0.14972208
O       5.61864799     6.75086700     1.61554999     0.96242315    -0.66363540     0.57158910
O       3.81158742     0.47603044     6.49492265    -0.51262211     1.51262015     0.23835009
O       5.60308901     2.74483202     1.71064097    -0.57979709     1.14560146    -0.49954702
O      -0.05708653     4.60062547     6.27472961     2.79474749    -0.15267525     1.13898241
O       1.84443302     6.34783000     1.57658799     0.93582739     1.09952008    -0.01880300
O      -0.00678358     0.87964145     6.49470563     1.35138158     0.24248803    -0.70872973
O       1.69929901     2.56665402     1.71693898     0.39170051     1.03428911    -1.84476875
