# total energy = -4989.64465754 eV

CRYSTAL
PRIMVEC
        2.99054710     0.00000000     0.00000000
        0.00000000     4.23947839     0.00000000
        0.00000000    -0.00005799     4.47379300
PRIMCOORD
6 1
Ti      1.49527355     2.11971005     2.23689650     0.00000000     0.00000000     0.00000000
Ti      0.00000000     0.00000000     0.00000000     0.00000000     0.00000000     0.00000000
O       1.49527355     0.82620053     0.87187635     0.00000000     0.24824216     0.13348684
O       1.49527355     3.41321951     3.60191659     0.00000000    -0.24824216    -0.13348684
O       0.00000000     1.29348602     3.10877376    -0.00000000    -0.24880960     0.13407434
O       0.00000000     2.94593408     1.36501919    -0.00000000     0.24880960    -0.13407434
