# total energy = -39034.56319572 eV

CRYSTAL
PRIMVEC
        7.60600008     0.00000000     0.00000000
        0.00000000     7.60600008     0.00000000
       -3.79573973    -3.79573973     9.71340985
PRIMCOORD
46 1
Ti      1.99265144     4.90363744     6.05251761     1.20415424     0.15656841     0.56685004
Ti      3.78592201     6.80684703     1.22209300    -0.60486510     0.92359151    -0.84736495
Ti      1.76814047     0.80250444     6.06568063     2.28302373     0.63493827     1.24747658
Ti      3.64717602     2.96226699     1.31667502     1.34276838    -1.19093234    -0.42374675
Ti     -1.80339358     4.59383046     6.12168663    -1.22254947     0.70890791    -0.13832103
Ti     -0.14545299     6.62770798     1.16660702     0.22268950     0.09873220     0.30392636
Ti     -1.82390353     0.73391746     6.04793562    -2.12415006     0.67761346    -0.15493705
Ti     -0.08603898     2.91562398     1.19803999    -1.28656970    -0.05582973    -2.10441298
Ti      3.95860646     0.93517542     8.44374964    -1.33448377     0.60466121    -1.25829553
Ti      5.62843999     2.79239098     3.61160399    -0.70125888     0.48042572     0.27944791
Ti      3.85800045    -2.80771453     8.59831760    -0.37775304    -0.28561136    -1.22516633
Ti      5.67985501    -1.00639400     3.73121598     0.41453115    -0.88907906    -0.98978972
Ti      0.02556445     0.95433746     8.42530961     1.51838790     0.84194070     2.33084009
Ti      1.67655799     2.73978002     3.55444099     1.13824810     0.13997014     0.72120062
Ti      0.09126545    -2.72873355     8.54395565     0.35325839    -0.33540593     0.18960916
Ti      1.97014601    -0.96997698     3.46430602    -0.95292343     0.61156385     0.74332600
O       2.14562145    -0.90887754     5.68734165    -0.26646923    -1.89366472    -1.54626099
O       3.98082000     0.96767400     0.95056400    -0.51933398     0.76425144    -1.36332950
O      -1.79501855     2.77292647     5.67066664     0.35564772     0.07818599    -0.47415556
O       0.19107199     4.76126400     0.82774599    -0.30940153    -0.03731675     0.11817129
O      -2.03070055    -1.03238153     5.71984361     0.30018386    -1.15085577    -0.69794241
O      -0.27589201     0.93208699     0.76055900     0.32703519     0.31057241     0.12835055
O       3.84976047     2.78714345     8.90477865     0.21868655     1.39021065     0.18910111
O       5.68752601     4.71380199     4.04164898    -0.21051789    -1.14375181     0.49177945
O       3.81260445    -0.84786658     8.90338061     0.18456954    -0.93955369     0.36189267
O       5.88123002     0.75192298     4.14977598     0.15391169     3.27284713    -0.84439970
O      -0.02415355     2.95290547     8.93141960    -0.11287996    -0.79033581    -0.17174101
O       2.10141303     4.52002299     4.13163801    -0.93533734     0.73657453    -0.50839393
O       0.03339347    -0.88584256     9.14866062    -0.23945978     0.93784442    -1.47425567
O       1.68875600     0.88147902     4.14967898    -0.10711117     1.36318732    -1.15173817
O       1.99023146     1.14785245     8.00224261    -1.70584351    -0.17051845     0.48672544
O       3.77543599     2.71086900     3.18155899     0.05069446     0.04913740     1.37773642
O       2.07772546    -2.56460955     7.98794662    -2.25072937    -0.79082920     1.35303300
O       3.87837197    -0.62732502     3.28444698    -2.35633439    -1.06605099    -0.40677438
O      -1.79205955     0.85446944     7.92712860    -1.36585304     0.81662560     2.27225568
O      -0.15910598     3.03121503     3.02502598     0.72841462    -0.41007902     2.68024903
O      -1.96177754    -2.59053156     7.99843164     2.14490658    -0.72620424     1.09250816
O      -0.03648598    -0.87946899     3.17215699     0.45765730    -1.13580555    -0.19301870
O       3.84942048     4.71720343     6.52282161     0.15434261    -1.06957468    -0.91523156
O       5.52583802     6.48216800     1.57769900     2.26376384    -0.87940837     0.28557973
O       3.79212048     0.88540144     6.45780563     1.01380975     0.59412097     0.00697669
O       5.59817798     2.88439300     1.45423798     0.17567892     0.81612938     1.25643379
O       0.10934845     5.01962246     6.55113360    -0.70998675    -1.12193728     0.02971194
O       1.79099098     6.93065699     1.46949898     1.13539212    -1.02085252     1.84239047
O       0.00113942     0.49152243     6.65886462     1.16615847    -0.04567746    -2.67826465
O       1.78626998     2.61615400     1.67501898     0.38589676     0.14067539    -0.78803210
