# total energy = -19929.99756640 eV

CRYSTAL
PRIMVEC
        6.96397493     0.00000000     0.00000000
        0.00002942     5.47826872     0.00000000
        0.00000000     0.00000000    11.08772090
PRIMCOORD
24 1
Ti      2.52412342     3.24641702     4.11346537     0.46471524    -0.59338435     0.91703519
Ti      4.43988100     2.23185189     6.97425559    -0.46471524     0.59338435    -0.91703519
Ti      6.00599061     2.23185380     1.43035081     0.46512250     0.59322622    -0.91708893
Ti      0.95801380     3.24641536     9.65737027    -0.46512250    -0.59322622     0.91708893
Ti      2.52410883     0.50728278     1.43039526     0.46471524    -0.59338435    -0.91703519
Ti      4.43989558     4.97098632     9.65732582    -0.46471524     0.59338435     0.91703519
Ti      0.95799922     0.50728069     6.97421113    -0.46512250    -0.59322622    -0.91708893
Ti      6.00600520     4.97098841     4.11350983     0.46512250     0.59322622     0.91708893
O       2.20415243     1.92899158     5.65797911     0.85876831     1.26821844    -1.00821374
O       4.75985204     3.54927733     5.42974185    -0.85876831    -1.26821844     1.00821374
O       1.27789653     1.92901368     0.11415432    -0.85891075     1.26889053    -1.00930338
O       5.68610801     3.54925529    10.97356633     0.85891075    -1.26889053     1.00930338
O       4.75983746     0.81014290     0.11411835    -0.85876831    -1.26821844    -1.00821374
O       2.20416702     4.66812601    10.97360230     0.85876831     1.26821844     1.00821374
O       5.68609342     0.81012087     5.65801508     0.85891075    -1.26889053    -1.00930338
O       1.27791100     4.66814810     5.42970588    -0.85891075     1.26889053     1.00930338
O       0.25303522     3.33219358     2.99507003    -1.31004954     0.25884411     0.10866823
O       6.71096925     2.14607533     8.09265093     1.31004954    -0.25884411    -0.10866823
O       3.73503020     2.14602424     2.54882571    -1.30915402    -0.25864330    -0.10882378
O       3.22897428     3.33224473     8.53889506     1.30915402     0.25864330     0.10882378
O       0.25302064     0.59305922     2.54879029    -1.31004954     0.25884411    -0.10866823
O       6.71098384     4.88520976     8.53893048     1.31004954    -0.25884411     0.10866823
O       3.22895969     0.59311031     8.09268628     1.30915402     0.25864330    -0.10882378
O       3.73504478     4.88515860     2.99503462    -1.30915402    -0.25864330     0.10882378
