# total energy = -19075.41492042 eV

CRYSTAL
PRIMVEC
        7.60600008     0.00000000     0.00000000
        0.00000000     7.60600008     0.00000000
       -1.89786986    -1.89786986     4.85670466
PRIMCOORD
22 1
Ti      3.76733201     6.55442202     1.31681398     0.58744870     0.60226854    -0.73140610
Ti      3.76768598     2.82446902     1.19836998    -0.50968617    -0.81801349    -0.02611779
Ti     -0.04530202     6.63952298     1.12368699     0.39158533    -0.01348801     1.16588439
Ti     -0.10304198     2.88137499     1.11095398     0.32393752     0.11802833    -0.59336609
Ti      5.65768825     3.02237623     3.55291680    -0.24293129    -1.01607901    -0.06534898
Ti     -1.40005679    -0.83101879     3.76056082    -2.07370680     0.28806471    -0.79730530
Ti      1.81052921     2.77882521     3.64127284     0.66825824    -0.83798865    -0.44641721
Ti      1.90933825    -1.12041979     3.76332180    -1.00543284     1.10193537    -0.83997226
O       3.65300798     4.59810098     0.71549903    -0.30327716     1.57331054     0.63461792
O       3.83501701     0.87948799     0.77992699     0.02551229    -0.41340475     2.07841192
O       0.03037901     4.79866498     0.66774099     0.16879813     0.04618140     0.29602330
O       7.30248698     0.89600398     0.66799103     0.80931030     1.98457382     1.04789411
O       5.69348021     4.84979821     4.10657982     0.62583991     0.18330712    -2.16480204
O       5.42839220     1.04580220     3.92433081     1.64590901    -1.35643431     0.43556072
O       1.96540225     4.63280522     4.27388381    -0.13481713     0.16286736    -1.58429867
O       2.07886325     0.84196022     4.04855982    -0.41835206     0.12395550    -0.54570656
O       3.73514724     2.93330924     3.17389079    -0.00572379     0.15852425    -0.49406028
O      -0.00757877     2.90921422     3.13472681    -0.28861724    -0.21788359     0.28358790
O       5.72761902     6.67931002     1.83597502     0.08911858    -0.68710392     1.02095562
O       5.71158897     3.27169201     1.55652001    -0.89859703    -1.19593957     0.79409322
O       1.91101701     6.56496402     1.81109803    -0.09601171     0.19969971    -0.01292777
O       1.78814200     2.71025399     1.42034899     0.64143546     0.01361888     0.54469998
