# total energy = -19961.35396862 eV

CRYSTAL
PRIMVEC
        7.60600008     0.00000000     0.00000000
        0.00000000     7.60600008     0.00000000
       -1.89786986    -1.89786986     4.85670466
PRIMCOORD
24 1
Ti      3.82812400     6.53636601     1.22187202     0.33830999     1.40213569     0.97294925
Ti      3.76998499     2.77838202     1.14820599     0.33886972    -0.56583034     0.45734697
Ti      0.03702198     6.79565001     1.28771701    -0.43119241    -1.42849079    -0.96652355
Ti     -0.00600902     2.87807700     1.25138899    -0.22695007     1.93171269    -0.53410986
Ti      5.65103321     2.92204624     3.61792183     0.55557626    -0.26574161     1.04515022
Ti      5.69838822    -0.89408878     3.65174282    -0.63163029     0.36730433    -0.43548025
Ti      1.92423120     2.74468121     3.63701079     0.02791139     0.72751474    -0.52181432
Ti      1.88030425    -1.09077878     3.66412880     0.53468990    -0.18655469    -0.37059560
O       3.79015897     4.77485100     0.84525800     0.09884893    -2.24554063    -1.19264547
O       3.78798802     0.82760501     0.82232499     0.12985438     1.30093266    -1.00761673
O       0.04711000     4.81639099     0.77713701    -0.17924015    -0.17854364    -0.40745495
O      -0.10307002     1.06154898     0.80450500     0.39960409    -0.43613408     0.39348820
O       5.60878021     4.86239321     4.09391883     0.15614778    -0.78456342     0.36377009
O       5.70119022     1.00926521     3.86578983     0.44992239     0.27935458     1.29768690
O       1.95395921     4.63141623     3.93694481     0.28989302     0.91935921     0.67041463
O       1.87293223     0.83721424     4.00834981    -0.11430795     1.13124082     0.93405101
O       3.84450722     2.68570223     3.25809681    -1.75956133     0.44951205    -0.63296470
O       3.80663422    -0.89867177     3.16459780    -0.73051059    -0.41114397     0.38291865
O       0.06944822     3.04990922     3.15290780    -0.49647609    -0.92103531     0.20711298
O      -0.04563376    -0.93799975     3.27033483     1.91788040    -0.16429252    -0.05736930
O       5.75781499     6.66244900     1.71740899    -0.46574857    -0.13236944    -1.07979302
O       5.65886302     2.93382101     1.64010800     0.10872068     0.07264115    -0.49135651
O       1.94399100     6.67424097     1.61769602    -1.15258407    -0.03925999     0.33239028
O       1.90808299     2.94993398     1.53421503     0.84197258    -0.82220721     0.64044455
