# total energy = -19959.73065632 eV

CRYSTAL
PRIMVEC
        7.60600008     0.00000000     0.00000000
        0.00000000     7.60600008     0.00000000
       -1.89786986    -1.89786986     4.85670466
PRIMCOORD
24 1
Ti      3.76283702     6.55542602     1.26537102     0.83384017    -1.70375165     0.19412530
Ti      3.75437701     2.74711003     1.16458900     0.87289705     1.13880989     2.22876932
Ti      0.09679202     6.72937299     1.34080101    -0.98302515     0.33073526    -1.31023620
Ti      0.02507702     2.95528597     1.06398902    -0.89457968     0.23128239     0.19830977
Ti      5.70220724     3.14031021     3.63024383    -1.60370511    -0.91397481    -1.13258987
Ti      5.76185621    -0.87229578     3.65412983    -1.15149957     0.30203069    -0.53790481
Ti      1.72688523     2.76397623     3.63832479     1.38158717     0.31814045     0.09873245
Ti      1.86932922    -1.06271778     3.74699081     1.55507267    -0.57829351    -1.37087878
O       3.76079800     4.57032399     0.70778002    -0.89485582     1.48180572     0.68385456
O       3.75693701     0.81736099     0.73266802    -0.20996845    -0.17046035     2.03222872
O       0.26034002     4.98489298     0.69644002    -1.19716058    -2.96411383     0.07993537
O       0.17685199     0.98074002     0.79303699    -0.96296591     1.27930839    -0.42381206
O       5.93845224     4.93826522     4.09022682    -0.10265699    -0.59721863    -0.35451412
O       5.77018821     1.10408520     3.82941080    -0.68068516    -1.46852031     2.04762655
O       1.80152923     4.58889520     4.13757479    -0.49909399     0.69336147    -0.16659032
O       1.99674023     0.86596920     4.13187979    -0.19455905    -0.84290152    -1.74632091
O       3.76785024     2.89469423     3.19349480    -0.50340676    -0.02587739     0.01359548
O       3.78140220     6.22509025     3.26601483     0.61676417     1.73008362    -0.33588416
O      -0.12856975     2.88730125     3.08521783     1.28945911     0.05381090     0.00848567
O       0.05320523    -0.80495676     3.27208783    -0.89123390     0.00649512    -0.16665871
O       5.69700501     6.49924698     1.49801099     0.17509373     0.69246056     1.34136919
O       5.60041799     3.04549001     1.59756500     1.24164428    -0.55764291    -0.66272574
O       1.87014600     6.36115098     1.74490901     1.39790468     1.18733845    -0.02620932
O       1.74993699     2.73145299     1.66012302     1.40513308     0.37709176    -0.69270738
