# total energy = -39038.05694768 eV

CRYSTAL
PRIMVEC
        7.60600008     0.00000000     0.00000000
        0.00000000     7.60600008     0.00000000
       -3.79573973    -3.79573973     9.71340985
PRIMCOORD
46 1
Ti      1.87903047     4.71892447     6.13962061     0.36170781     0.17143505     0.58328197
Ti      3.72690001     6.88180202     1.27609602     0.82639271    -0.81253189     0.69771255
Ti      2.02704145     0.91561243     6.01513764     0.54068751    -0.60585960     1.47041007
Ti      3.79941899     2.81275901     1.22580100     0.29930814     0.64146194     0.90252156
Ti     -1.86840554     4.67482644     6.03670362    -0.23192568    -0.02355517     1.00240536
Ti      0.05168400     6.70759899     1.15888802    -1.98677185    -0.81815490     0.09526506
Ti     -1.83236455     0.88875446     5.97773364    -0.69525381    -0.00702940     1.12700749
Ti     -0.08134899     2.86191201     1.14639203    -0.19526276     0.85746117    -0.30763775
Ti      3.81569246     1.08271946     8.46086461     0.79782441    -0.86577432    -0.24456188
Ti      5.69629501     2.76825902     3.70072098    -0.16230198     0.23215990    -0.98263100
Ti      3.87230247    -2.80952056     8.46667561     0.70590229     0.61917175    -0.15188978
Ti      5.61986700    -1.01340999     3.62348899    -0.29997843    -0.78160254    -0.47524726
Ti      0.06291944     1.05701044     8.31144760    -0.61336337    -0.66941755     1.48009259
Ti      1.88482797     2.81432099     3.47543001    -0.74029698     0.08341253     1.68409711
Ti      0.07403444    -2.73776756     8.57299562    -0.87377534    -0.44719317    -0.32632479
Ti      1.76333999    -1.03790000     3.75393700     0.48055324     0.06754445     0.86400925
O       1.95594844    -1.03603058     5.81481262    -0.04047226     0.79749248    -1.06472147
O       3.85115602     1.06309000     0.81720499     0.03842798    -1.40574192     0.49272408
O      -1.82236056     2.82254445     5.65012863     0.27712491    -1.29428070    -0.17032485
O      -0.08436699     4.79433303     0.62622201     0.12295560     0.16075854     1.18604776
O      -2.01398157    -1.03323657     5.56812664     0.55536800     0.31904317     1.10102212
O      -0.04433098     0.97166902     0.80514202    -0.36472577     0.42782813     0.25243897
O       3.92969143     2.94479043     8.90922665    -0.46794712    -0.88424719    -0.02157002
O       5.55019002     4.59983499     4.15568800     0.13149372     1.23856024    -1.01135100
O       3.89688947    -0.88458756     8.88795462    -0.15003035    -1.00452806    -0.36914730
O       5.68691799     0.82396798     4.00747900     0.23283893     1.19739944     0.03837527
O       0.04521444     2.75728446     9.08718462     0.08673260    -0.05848182    -0.18751911
O       1.75572201     4.70350499     4.22736300     0.35922824    -1.53848700    -1.44323916
O       0.02488747    -0.83756656     9.04085562     0.15322006     1.22038254    -1.37925775
O       1.78584098     0.95899798     4.22086999    -0.34161052     0.52188426    -2.23091876
O       1.97046547     0.82544444     7.97648861     0.07784506     0.76842949     0.79751690
O       3.70930402     2.63230100     3.20292997     0.74872763     0.38655573     0.61454299
O       1.90808844    -2.93922555     8.21312562     0.34769529     0.20686255    -0.52932169
O       3.70928402    -0.89735698     3.31573702    -1.02419701    -0.33322923    -0.72002922
O      -1.82495056     0.99511644     8.00932364    -0.69366435    -0.29352984     0.15404076
O      -0.09692702     2.76082598     3.08250098     0.76434966    -0.09268676     0.97358200
O      -1.81386255    -2.97485955     8.24041365    -0.15375845     0.82048817    -0.51445197
O      -0.06884400    -1.05812801     3.22056100     0.25764443     0.19741812    -0.01956147
O       3.87518146     4.52688944     6.54062462    -0.89118968     0.36384286     0.08132171
O       5.56034001     6.49415301     1.61703301    -0.14199899     0.26654251     0.11972578
O       3.88820943     1.12052246     6.42892065    -0.65385312    -0.05839800    -0.54333009
O       5.62331798     3.18241700     1.72000000    -0.34075383    -0.35887420    -0.98815039
O       0.01579446     4.66750845     6.56860561     0.24403326     0.04761582    -0.23722318
O       1.77220699     6.54696501     1.56574102     2.39720466     0.10939842     0.87471225
O       0.02650347     1.06398743     6.51184664     0.80565882    -0.06736473    -2.21502496
O       1.89962202     2.89127701     1.55641099    -0.54979256     0.69781900    -0.45941902
