# total energy = -19939.15196468 eV

CRYSTAL
PRIMVEC
        5.92019920     0.00000000     0.00000000
        1.55101675     6.10700117     0.00000000
        0.00000000     0.00000000    10.68091487
PRIMCOORD
24 1
Ti      3.06491862     3.61900342     3.96254344     0.07295354    -2.02214228     0.86296256
Ti      4.40629750     2.48799816     6.71837203    -0.07295354     2.02214228    -0.86296256
Ti      5.73767572     2.48800027     1.37787165    -0.44232118    -0.52356293     0.01277864
Ti      1.73354043     3.61900155     9.30304394     0.44232118     0.52356293    -0.01277864
Ti      2.28941037     0.56550288     1.37791448     0.07295354    -2.02214228    -0.86296256
Ti      5.18180578     5.54149894     9.30300111    -0.07295354     2.02214228     0.86296256
Ti      0.95803206     0.56550054     6.71832921     0.44232118     0.52356293     0.01277864
Ti      6.51318408     5.54150122     3.96258626    -0.44232118    -0.52356293    -0.01277864
O       2.41991980     2.15037906     5.45038935     1.66782382     1.94073855    -0.65473629
O       5.05129626     3.95662252     5.23052611    -1.66782382    -1.94073855     0.65473629
O       1.63249945     2.15040371     0.10996604    -0.59864457    -0.00629458     0.94355253
O       5.83871675     3.95659798    10.57094913     0.59864457     0.00629458    -0.94355253
O       4.27578799     0.90312180     0.10993138    -1.66782382    -1.94073855    -0.65473629
O       3.19542813     5.20387978    10.57098379     1.66782382     1.94073855     0.65473629
O       5.06320847     0.90309720     5.45042401     0.59864457     0.00629458     0.94355253
O       2.40800760     5.20390444     5.23049146    -0.59864457    -0.00629458    -0.94355253
O       1.15851084     3.71462444     2.88518174     0.41479237     1.42709751     1.47831725
O       6.31270523     2.39237714     7.79573373    -0.41479237    -1.42709751    -1.47831725
O       3.78279196     2.39232019     2.45530999     0.82191617     1.39316536     0.55655431
O       3.68842418     3.71468144     8.22560530    -0.82191617    -1.39316536    -0.55655431
O       0.38300257     0.66112372     2.45527587     0.41479237     1.42709751    -1.47831725
O       7.08821356     5.44587792     8.22563941    -0.41479237    -1.42709751     1.47831725
O       2.91291590     0.66118066     7.79576778    -0.82191617    -1.39316536     0.55655431
O       4.55830023     5.44582091     2.88514762     0.82191617     1.39316536    -0.55655431
