# total energy = -39032.57551290 eV

CRYSTAL
PRIMVEC
        5.93200024     0.00000000     0.00000000
        0.00000000     9.29399984     0.00000000
        0.00000000     0.00000000     9.29399984
PRIMCOORD
46 1
Ti      4.36999902     6.98967602     6.83199803     1.03742483     0.65677029     1.97038698
Ti      4.39738299     6.80994398     2.31160800     2.92345054    -1.31174698     0.96705833
Ti      4.42011999     2.27647999     7.12321803     0.82164903    -0.97658093     0.02258586
Ti      4.43655899     2.70682101     2.01350203     0.73751093    -1.39823892     1.56647501
Ti      1.47909598     6.99005502     7.03691800    -1.22508123    -0.29962105     1.37865894
Ti      1.58275698     7.16832203     2.18976499    -2.69281350    -1.72170902    -0.47745969
Ti      1.49311700     2.41355601     6.76317699    -1.19376210    -1.29273984     1.31492435
Ti      1.41421599     2.01655898     2.66858197     0.49768708     0.92631765    -1.93514974
Ti      2.99323597     4.62968699     4.72071399    -0.32779315     0.31295891    -1.33842784
Ti      2.92936899     4.86735700     9.08789498    -0.27243368    -0.94470593     2.10321562
Ti      2.95949701     9.20734098     4.66910498     0.67543368     1.02521440     0.35052325
Ti      3.05534101     0.14486402     9.28813603    -1.37654780    -0.16392486     1.22178096
Ti      0.04646298     4.58794998     4.75591402     0.26143578     1.60714525    -2.16966914
Ti      0.04242202     4.52665401     9.15951701     0.15924159     1.16480735     0.44233275
Ti      5.87744000     9.12082801     4.87809300    -0.47067069     1.34995230    -0.87910498
Ti      5.88574401     9.20971302     9.17159400     1.07544811     0.13183336     0.93509154
O       4.35534203     5.68673399     5.65584698     0.45012165    -1.56060312    -1.77287579
O       4.49575201     5.47693601     0.71818100    -0.22733111    -0.70136558     1.57366073
O       4.32238301     0.84303598     5.73801497     0.85972219    -0.61398815    -1.60420827
O       4.57937302     0.89555301     1.05641602    -1.18931409     1.17567001    -0.61774016
O       1.56953099     5.74711799     5.66695298    -0.23206297    -1.79183023    -1.09206465
O       1.43219299     5.64695601     0.81957602     0.65379398    -0.74181393    -0.51102263
O       1.48067599     0.80288900     5.71828799    -0.84356383     0.65557576    -1.49055107
O       1.52735398     0.76748402     1.18650599     0.20599815     0.41441082     0.14022596
O       4.36017500     8.51577399     8.29779901     0.60675769    -0.00140382     0.78414896
O       4.33286501     8.27748998     3.71230001     0.27663769     0.92330071     1.09991680
O       4.39852300     3.92010501     8.12160902     0.21397783    -1.80354700     0.96574373
O       4.50448502     3.84267902     3.79435800     0.01104495    -0.53196118    -0.51947410
O       1.41569398     8.18633602     8.67427602     1.02378692     1.02435462    -1.28279943
O       1.38673200     8.31271000     3.90726098     0.55002319     0.04551934    -1.54228220
O       1.59216999     3.74211598     8.25882399    -0.17239510     0.33013748     0.34997278
O       1.51379799     3.86757501     3.77327102    -0.69256932    -1.34825023     0.88934286
O       3.04954202     6.08678797     7.87990599    -0.73979433     1.97101381    -1.27460738
O       2.98239498     5.75933299     3.04510900    -0.06035101     1.95316032     0.31603909
O       2.85316800     1.34869501     7.89806603     0.50121541     0.78183188     0.42754813
O       3.11836999     1.67271399     3.25090899    -0.46654972    -0.49514812    -0.07857731
O       5.88255201     5.98270601     7.85126099     0.26354177     1.00103342    -0.72336523
O       0.03442002     6.03883398     3.31395702    -0.18984339     0.36099819    -0.44231784
O       0.12846402     1.50650402     7.96110400    -1.18256340    -0.19436082     0.12333895
O       2.84925700     8.03491301     6.25262498     0.36914936    -0.36977517    -0.80610079
O       3.17531301     7.69890001     1.30573698    -1.84779339     1.31933585     0.16193071
O       3.01936997     3.09192700     6.03271802     0.20287786     1.27939581    -0.95231357
O       5.88943100     8.02084499     6.25566801     0.62694368    -0.99286014     0.50304732
O       5.85240801     7.84313901     1.31202599     0.73997611    -0.63801486     1.62499334
O       5.79725700     3.09920801     5.97908299     0.89193402     0.56384776     0.03844006
O       0.25847700     3.30012999     1.44634303    -1.23354993    -1.08039466     0.23872830
