# total energy = -19960.99644148 eV

CRYSTAL
PRIMVEC
        5.93400000     0.00000000     0.00000000
        0.00000000     9.29699974     0.00000000
        0.00000000     0.00000000     4.64899994
PRIMCOORD
24 1
Ti      4.48711399     6.94197302     2.22713199    -1.21225991     0.29016350     0.61414884
Ti      4.41799598     2.28304698     2.29279199     0.55972268     0.59630898     0.32543802
Ti      1.47826702     6.98314798     2.40049099     1.25777668    -0.28921450    -0.09593252
Ti      1.46049000     2.29381600     2.31627698    -0.40694202     0.53410163     0.70449590
Ti      2.98760902     4.66813902     4.64567401    -1.01648807    -0.67627469    -0.26883979
Ti      2.96384499     0.06503297     0.02256798    -0.12552722    -0.77246432    -0.62424145
Ti      5.92979098     4.63174998     4.61323899     0.82386352    -0.77038970    -0.10597011
Ti      0.00018802     9.25825201     0.07198202    -0.21911823     0.35274777    -1.31896767
O       4.45362998     5.48828200     0.89827198     0.52906458     0.99524432     0.53337683
O       4.39801102     0.85099602     0.84504299     0.64047566     0.97283741     1.66702652
O       1.49532097     5.56944599     0.90052098    -0.40695847    -0.41028497    -0.22065961
O       1.47327799     0.97440900     0.98534100     0.12803919    -1.22465803    -0.96285072
O       4.44807103     8.43597698     3.75708000    -0.00023166    -0.46912237    -0.24621896
O       4.43671202     3.79483600     3.70881300     0.45660958    -0.14569419     0.03780346
O       1.46170499     8.48758901     3.74360000    -0.03526346    -0.55264546    -0.12233570
O       1.54163801     3.74460200     3.67131598    -0.50646200     0.88306808     0.94939151
O       3.01393898     6.10310801     3.18826102     0.00682988    -0.14767059     0.49115673
O       3.01046202     1.50621298     3.23714001    -0.26709092    -1.06138752     0.74860422
O       5.85423002     6.07215300     3.22772399     0.33426539    -0.03175236     0.12602087
O       5.89590501     1.45789899     3.33020800     0.31961961    -0.13665496    -0.42370716
O       2.85374602     7.82793300     1.38955299     1.00486488     0.59125264    -0.11495072
O       3.01889800     3.18271202     1.35989002    -0.17951989     0.39262328    -0.07682356
O       0.09890598     7.88291901     1.46066002    -1.19333041     0.25556749    -0.44540214
O       0.03647100     3.18705598     1.47962002    -0.49193989     0.82429829    -1.17056277
