# total energy = -19956.63594832 eV

CRYSTAL
PRIMVEC
        5.93400000     0.00000000     0.00000000
        0.00000000     9.29699974     0.00000000
        0.00000000     0.00000000     4.64899994
PRIMCOORD
24 1
Ti      4.53122202     7.14780598     2.48890301    -1.83147665    -0.33312768    -2.63319345
Ti      4.59705199     2.38343201     2.21031400    -5.09795901     0.23103916    -0.22828988
Ti      1.45447002     6.55050901     2.47688900     2.34967986     2.54031129    -1.86108343
Ti      1.38806997     2.40442299     2.48795298     3.98097677    -0.51748253    -2.28008778
Ti      3.12196501     4.50197302     4.64696700    -0.08715760     2.78144949     1.99497393
Ti      2.92780300     0.23218297     4.44822200    -2.42521787    -2.10387176    -0.58791098
Ti      0.03736700     4.43435300     0.00724401    -0.72408771     3.98255466     0.17804510
Ti      5.82556402     0.23057899     4.64439499     3.02585427    -3.51124479    -0.08897409
O       4.57018698     5.38442398     0.89314298    -0.28595691    -0.67773585    -0.31451571
O       4.37343698     1.25243200     0.58210000    -0.75504200    -0.94904621     1.25437922
O       1.52221302     5.45638398     0.88387000    -0.42373596    -0.76503897     0.68583714
O       1.17653603     1.19686500     0.75318602     1.76724147    -0.57529277    -0.05332187
O       4.30480798     8.67195701     3.47402002     0.00341237     0.96909671     2.46853917
O       4.39480198     3.49378399     3.85243800     1.70936129    -0.30280305    -1.54798980
O       1.30857099     8.40437298     3.80223501     0.80785351     1.43734927     0.53842365
O       1.58779099     3.65528302     3.75296300    -0.72591602     0.54837871     0.07915375
O       3.16391299     6.08879398     3.28026902    -1.91009639    -2.24794178     1.37985579
O       2.90641302     1.44475200     2.95455301    -0.02225059    -1.44897786     1.39648080
O       5.89719102     5.99185601     3.46181603     0.10083665    -0.28152022    -1.00497184
O       5.91701098     1.46076501     3.09629801    -0.66467875    -1.36805879     0.68512211
O       2.88618199     7.69454599     1.56609102     0.73696637     0.87853316    -0.78846122
O       3.00074902     3.22602401     1.42056098    -0.34088495     0.53316677     0.19960047
O       0.00478397     7.71094202     1.44193397    -0.02369735     0.64859469     0.11184123
O       0.00298202     3.26211998     1.45376098     0.83597522     0.53166808     0.41654741
