# total energy = -19960.54698909 eV

CRYSTAL
PRIMVEC
        7.60600008     0.00000000     0.00000000
        0.00000000     7.60600008     0.00000000
       -1.89786986    -1.89786986     4.85670466
PRIMCOORD
24 1
Ti      3.82440299     6.69585898     1.20776701    -1.16795850    -1.39247914    -1.34282392
Ti      3.77193199     2.69290000     1.26698300    -0.00104258     2.66381247    -2.61267347
Ti     -0.10682200     6.72400602     1.25016601     1.79214904     0.08433787    -0.27623557
Ti     -0.03745300     2.87158299     1.25890400    -0.05610072    -0.00249037     0.46847342
Ti      5.61344025     2.92693821     3.63722283     2.67038987    -0.10434286     1.11583347
Ti      5.60352421    -0.86284975     3.58010281     2.12349160     0.25176251     2.10895715
Ti      2.08034823     2.72563220     3.61216782    -3.23957756    -0.33982360     1.52854814
Ti      1.98109225    -1.01387879     3.59639882    -1.68231636     0.62770884    -0.53186502
O       3.86566802     4.64287101     0.73460502    -0.13826267     1.14265498    -0.04571115
O       3.90976801     0.97969003     0.76948500    -0.20067570    -2.44161560    -0.54147453
O      -0.12167701     4.79490200     0.82920498     0.22278463     0.64739065     0.16909663
O      -0.03262499     0.99530800     0.83627500    -0.28550671    -0.12358475    -0.42996137
O       5.47801622     4.88640722     4.07800081     0.34733585    -1.09291002    -0.25707184
O       5.61128623     1.03211424     4.14499582    -0.11635095    -0.71806207    -0.56950830
O       2.18757324     4.72846623     4.06212279    -0.58427287     0.14140893     0.01988826
O       2.16597921     0.88059323     4.01222080    -0.86866758     0.11099534    -0.01413413
O       3.82363023     2.61731020     3.10696881    -0.68304955     0.50855514     1.50783686
O       3.79747220    -0.87761475     3.20606784     0.06635043    -0.13576895    -0.93315730
O      -0.04459879     2.80838621     3.25274079     0.60754110     0.45661729    -0.05025274
O      -0.03292578    -0.82258476     3.27216980     0.66770803    -0.57245787    -0.53555482
O       5.70889901     6.75685300     1.62081102    -1.25016775    -0.17073031     0.43207225
O       5.63514599     2.82662399     1.75686498     1.07077667     0.27534468    -1.12252297
O       1.93229999     6.73339400     1.53995602     0.28860464    -0.45397754     0.72002202
O       1.87626298     2.68851799     1.49736497     0.41681763     0.63765388     1.19221892
