# total energy = -19935.52088565 eV

CRYSTAL
PRIMVEC
        5.20167355     0.00000000     0.00000000
        2.60527095     4.88483013     0.00000000
        0.00000000     0.00000000     9.63399747
PRIMCOORD
24 1
Ti      3.42923765     2.89474581     3.57414436     3.92475212    -4.75770038     1.12599782
Ti      4.37770698     1.99008444     6.05985321    -3.92475212     4.75770038    -1.12599782
Ti      5.54749832     1.99008618     1.24281593    -8.32074469     1.61396921     1.81111582
Ti      2.25944648     2.89474430     8.39118169     8.32074469    -1.61396921    -1.81111582
Ti      2.12660238     0.45233091     1.24285458     3.92480252    -4.75798089    -1.12816732
Ti      5.68034235     4.43249953     8.39114310    -3.92480252     4.75798089     1.12816732
Ti      0.95681095     0.45232903     6.05981456     8.32026801    -1.61341977     1.81114642
Ti      6.85013376     4.43250136     3.57418296    -8.32026801     1.61341977    -1.81114642
O       2.56372276     1.72003177     4.91615518    -0.12019912     1.06236094    -1.43169207
O       5.24322193     3.16479852     4.71784238     0.12019912    -1.06236094     1.43169207
O       1.87187541     1.72005143     0.09918741     1.97575107    -0.39370237    -0.98026995
O       5.93506935     3.16477890     9.53480985    -1.97575107     0.39370237     0.98026995
O       3.94058656     0.72238344     0.09915614     0.11932648    -1.06344826    -1.43235645
O       3.86635812     4.16244680     9.53484112    -0.11932648     1.06344826     1.43235645
O       4.63243398     0.72236381     4.91618640    -1.97497897     0.39407159    -0.97948088
O       3.17451067     4.16246649     4.71781112     1.97497897    -0.39407159     0.97948088
O       1.77366228     2.97123056     2.60238306     0.48799119    -1.44411616    -1.08320925
O       6.03328241     1.91359973     7.03161445    -0.48799119     1.44411616     1.08320925
O       3.81040925     1.91355411     2.21464632     2.18026904    -1.19117814    -2.39845704
O       3.99653544     2.97127618     7.41935105    -2.18026904     1.19117814     2.39845704
O       0.47102691     0.52881547     2.21461557     0.48742812    -1.44449771     1.08269040
O       7.33591777     4.35601477     7.41938180    -0.48742812     1.44449771    -1.08269040
O       2.69390007     0.52886109     7.03164515    -2.17972088     1.19090097    -2.39823027
O       5.11304461     4.35596915     2.60235231     2.17972088    -1.19090097     2.39823027
