# total energy = -19948.23319901 eV

CRYSTAL
PRIMVEC
        6.36617569     0.00000000     0.00000000
        0.00002505     4.51702399     0.00000000
        0.00000000     0.00000000     9.89067247
PRIMCOORD
24 1
Ti      2.30744744     2.67678421     3.66936894     0.22267021     0.81897945    -0.88951255
Ti      4.05875341     1.84023977     6.22130364    -0.22267021    -0.81897945     0.88951255
Ti      5.49042554     1.84024135     1.27592781     0.22382181    -0.81931806     0.89030933
Ti      0.87577531     2.67678286     8.61474482    -0.22382181     0.81931806    -0.89030933
Ti      2.30743491     0.41827233     1.27596746     0.22267021     0.81897945     0.88951255
Ti      4.05876594     4.09875182     8.61470518    -0.22267021    -0.81897945    -0.88951255
Ti      0.87576278     0.41827065     6.22126393    -0.22382181     0.81931806     0.89030933
Ti      5.49043807     4.09875350     3.66940859     0.22382181    -0.81931806    -0.89030933
O       2.01494367     1.59052095     5.04713447     1.23720964    -0.27241954     0.63071112
O       4.35125718     2.92650309     4.84353811    -1.23720964     0.27241954    -0.63071112
O       1.16819917     1.59053916     0.10183002    -1.23689340    -0.27254089     0.63031312
O       5.19800179     2.92648488     9.78884223     1.23689340     0.27254089    -0.63031312
O       4.35124470     0.66799104     0.10179791    -1.23720964     0.27241954     0.63071112
O       2.01495615     3.84903295     9.78887434     1.23720964    -0.27241954    -0.63071112
O       5.19798927     0.66797289     5.04716653     1.23689340     0.27254089     0.63031312
O       1.16821153     3.84905120     4.84350600    -1.23689340    -0.27254089    -0.63031312
O       0.23131325     2.74751004     2.67171740    -0.40376928     0.08890030     0.91524776
O       6.13488760     1.76951400     7.21895518     0.40376928    -0.08890030    -0.91524776
O       3.41440822     1.76947188     2.27365035    -0.40361321    -0.08871106    -0.91542208
O       2.95179264     2.74755216     7.61702207     0.40361321     0.08871106     0.91542208
O       0.23130072     0.48899800     2.27361872    -0.40376928     0.08890030    -0.91524776
O       6.13490013     4.02802599     7.61705364     0.40376928    -0.08890030     0.91524776
O       2.95178016     0.48904012     7.21898669     0.40361321     0.08871106    -0.91542208
O       3.41442069     4.02798392     2.67168583    -0.40361321    -0.08871106     0.91542208
