# total energy = -19519.20420470 eV

CRYSTAL
PRIMVEC
        7.60600008     0.00000000     0.00000000
        0.00000000     7.60600008     0.00000000
       -1.89786986    -1.89786986     4.85670466
PRIMCOORD
23 1
Ti      3.81390702     6.62076402     1.19002698     0.17574551     0.62565402    -0.01167564
Ti      3.85537298     2.81807799     1.19008598    -0.01824970    -0.82956649     1.72788224
Ti      0.01447702     6.74024001     1.21459699    -0.36259330     0.75912132     0.18657860
Ti     -0.01485401     2.89000402     1.07341499     0.40418785    -0.73743328     0.62307571
Ti      5.57889624     2.92274925     3.76891081    -0.66040198    -0.36408043    -1.64555960
Ti      5.71298923    -0.99077677     3.57707083    -0.75185384     0.74547724     0.29271352
Ti      1.98175224     2.76684421     3.73412381     1.04462649     0.40011394    -1.08556155
Ti      1.88544124    -0.99182179     3.59360381     0.55057444    -0.02726399     0.52777671
O       3.98368603     4.65057700     0.86416100    -0.78268369     0.99437837    -0.02460315
O       3.91306198     0.96963799     0.74875998    -0.14947037    -0.93685737    -0.28612841
O      -0.04915400     4.87297501     0.78365901     0.66132732    -0.86513745     0.86728021
O      -0.08915801     0.97445699     0.78947499     0.22694827    -0.25372375    -0.52796209
O       5.49974821     4.79446225     4.00445179     0.92243914     0.16883027     0.18585149
O       5.63881821     0.98877023     4.07413279     0.52826548    -0.15900428    -0.47554268
O       1.85413723     4.64775320     4.01764381    -0.47594094     0.95909305     0.23648733
O       1.92791120     0.93728425     4.06379182    -0.62714114    -0.67651431     0.13710516
O       3.80807623     2.68598423     3.27097783    -0.41245601     0.51008135    -0.68576952
O       3.77016322    -1.00058480     3.13532583    -0.01751385     0.15178282     0.39863967
O      -0.00934776    -0.84005280     3.25093482    -0.03940166    -0.49449865    -0.42734836
O       5.67998101     6.64903298     1.59501998     0.55672066     0.13073987     0.38206093
O       5.85663699     2.80778300     1.77824601    -0.33076406     0.35097551    -0.08188684
O       1.90887601     6.85771900     1.58073801    -0.48630660    -0.77679637     0.02400614
O       1.77838000     2.77919399     1.75125602     0.04394197     0.32462889    -0.33741988
