# total energy = -4981.85884445 eV

CRYSTAL
PRIMVEC
        3.34677043     0.00000000     0.00000000
       -0.00000745     3.34677043     0.00000000
       -1.67341146    -1.67341519     4.27122340
PRIMCOORD
6 1
Ti     -0.00014738     2.51020458     1.06780573     0.00331492    -0.00306321     0.00022626
Ti      1.67349880    -0.83684943     3.20341738    -0.00331492     0.00306321    -0.00022626
O       0.00003343     0.83668692     0.69574734     0.00112460     0.00578807     3.37087639
O       1.67331790     0.83666813     3.57547582    -0.00112460    -0.00578807    -3.37087639
O      -0.00001890    -0.83667239     2.83135899     0.00576956     0.00117628     3.37087433
O       1.67337019     2.51002740     1.43986417    -0.00576956    -0.00117628    -3.37087433
