# total energy = -19958.06512051 eV

CRYSTAL
PRIMVEC
        5.93400000     0.00000000     0.00000000
        0.00000000     9.29699974     0.00000000
        0.00000000     0.00000000     4.64899994
PRIMCOORD
24 1
Ti      4.44716698     6.62900500     2.27983598     1.27111428     3.82882603     1.92872841
Ti      4.48223000     2.49656301     2.30189400     0.01491780    -2.96814790     1.45043336
Ti      1.49265101     6.75484599     1.99875200    -0.92091859     3.43152951     1.50625126
Ti      1.52311802     2.45738199     2.28325399     0.10382376    -2.80059110     1.63101718
Ti      2.94644401     4.67658500     4.54884198    -0.58149376    -1.96990824    -0.47220230
Ti      2.97828799     9.25774199     0.23661102    -0.57239720    -1.67756933    -2.24657858
Ti      5.90201298     4.64419602     0.06224998     0.16796072    -1.27984909    -1.76508149
Ti      5.87684500     0.01518501     0.24491000     1.06754068    -1.66230906    -2.72119412
O       4.40612701     5.68612698     0.73304099     0.49373144    -0.82348222    -0.58809893
O       4.53823098     0.92690301     1.06036902    -1.75103195     1.02180614    -0.35761359
O       1.44220899     5.70523398     0.47811699     0.19983804     0.95460956     1.97855538
O       1.43364298     0.92448901     1.09296899     1.01545963     0.42522720    -0.32255890
O       4.45888598     8.29603298     3.92165201    -0.61737223     1.00377627     0.39302823
O       4.40109099     3.89553198     3.65750900     0.93729601     0.46575834     0.89337409
O       1.43481702     8.29644098     3.99713798     1.32855763     1.36367634     0.19230393
O       1.47737398     3.79407901     3.69617402    -0.28285668    -0.09673085     1.16124020
O       2.91304101     5.88369599     3.03914602    -0.29753434     0.65669881    -0.44039851
O       3.11205997     1.63949600     3.13451000    -1.41185369    -0.89284444     1.20637388
O       0.16297903     5.94649298     3.07518701    -1.02753765    -0.20556903    -0.86805900
O       5.84666401     1.57513598     3.28263201     0.33467085     0.75048421    -0.22835133
O       3.11731698     7.86049502     1.48233798    -0.96866579    -0.74279146     0.93622463
O       2.85985299     3.46416399     1.53429498     1.03212244     1.27935827    -2.51857337
O       5.85837401     7.92152498     1.55943302     0.73562554    -1.57617115     0.59862760
O       0.05980401     3.32967999     1.39307398    -0.27099720     1.51421346    -1.34744779
