# total energy = -19962.06577398 eV

CRYSTAL
PRIMVEC
        5.22751003     0.00000000     0.00000000
        0.00002865     5.56365149     0.00000000
        0.00000000     0.00000000     9.35609349
PRIMCOORD
24 1
Ti      1.89473794     3.29701473     3.47104402     0.00563380    -0.08832385     0.08092884
Ti      3.33280074     2.26663682     5.88504974    -0.00563380     0.08832385    -0.08092884
Ti      4.50840144     2.26663873     1.20696547     0.00747394     0.08895583    -0.08074372
Ti      0.71913725     3.29701303     8.14912839    -0.00747394    -0.08895583     0.08074372
Ti      1.89472372     0.51518909     1.20700299     0.00563380    -0.08832385    -0.08092884
Ti      3.33281496     5.04846262     8.14909087    -0.00563380     0.08832385     0.08092884
Ti      0.71912303     0.51518702     5.88501222    -0.00747394    -0.08895583    -0.08074372
Ti      4.50841565     5.04846469     3.47108154     0.00747394     0.08895583     0.08074372
O       1.65455002     1.95905632     4.77434299     0.16564518     0.14208693     0.01153912
O       3.57298866     3.60459528     4.58175077    -0.16564518    -0.14208693    -0.01153912
O       0.95925574     1.95907873     0.09632623    -0.16572617     0.14173546     0.01141416
O       4.26828300     3.60457287     9.25976726     0.16572617    -0.14173546    -0.01141416
O       3.57297444     0.82276948     0.09629587    -0.16564518    -0.14208693     0.01153912
O       1.65456424     4.74088207     9.25979762     0.16564518     0.14208693    -0.01153912
O       4.26826878     0.82274707     4.77437335     0.16572617    -0.14173546     0.01141416
O       0.95926985     4.74090453     4.58172041    -0.16572617     0.14173546    -0.01141416
O       0.18994494     3.38412824     2.52731432     0.05355893    -0.02894061     0.04102197
O       5.03759374     2.17952331     6.82877943    -0.05355893     0.02894061    -0.04102197
O       2.80370414     2.17947146     2.15076230     0.05361960     0.02892621    -0.04082528
O       2.42383454     3.38418009     7.20533130    -0.05361960    -0.02892621     0.04082528
O       0.18993072     0.60230244     2.15073242     0.05355893    -0.02894061    -0.04102197
O       5.03760796     4.96134911     7.20536118    -0.05355893     0.02894061     0.04102197
O       2.42382032     0.60235429     6.82880926    -0.05361960    -0.02892621    -0.04082528
O       2.80371836     4.96129726     2.52728445     0.05361960     0.02892621     0.04082528
