# total energy = -4982.58490464 eV

CRYSTAL
PRIMVEC
        4.31967914     0.00000000     0.00000000
        0.00000000     2.90069551     0.00000000
        0.00000000    -0.00009296     5.75534866
PRIMCOORD
6 1
Ti      2.15983957     1.45030122     2.87767422     0.00000000     0.00000000     0.00000000
Ti      0.00000000     0.00000000     0.00000000     0.00000000     0.00000000     0.00000000
O       2.15983957     0.56528471     1.12163267    -0.00000000    -0.28939268     2.12980649
O       2.15983957     2.33531778     4.63371577    -0.00000000     0.28939268    -2.12980649
O       0.00000000     0.88497965     3.99930799     0.00000000     0.28914354     2.13019267
O       0.00000000     2.01562279     1.75604040     0.00000000    -0.28914354    -2.13019267
