# total energy = -19955.13670747 eV

CRYSTAL
PRIMVEC
        5.54497471     0.00000000     0.00000000
        0.58871157     5.87209278     0.00000000
        0.00000000     0.00000000     9.93674278
PRIMCOORD
24 1
Ti      2.35865663     3.47979678     3.68646079     0.19442664    -1.07075739     0.66744500
Ti      3.77502983     2.39229605     6.25028233    -0.19442664     1.07075739    -0.66744500
Ti      5.02202450     2.39229805     1.28187108    -0.26398426    -0.00904386    -0.12462707
Ti      1.11166197     3.47979507     8.65487221     0.26398426     0.00904386     0.12462707
Ti      2.06430096     0.54375044     1.28191094     0.19442664    -1.07075739    -0.66744500
Ti      4.06938551     5.32834262     8.65483235    -0.19442664     1.07075739     0.66744500
Ti      0.81730622     0.54374828     6.25024253     0.26398426     0.00904386    -0.12462707
Ti      5.31638018     5.32834472     3.68650065    -0.26398426    -0.00904386     0.12462707
O       1.96231492     2.06766371     5.07064391     1.04859345     1.14289409    -0.27129211
O       4.17137153     3.80442918     4.86609921    -1.04859345    -1.14289409     0.27129211
O       1.22479803     2.06768745     0.10230434    -0.64159358     0.38564505     0.36930517
O       4.90888848     3.80440548     9.83443855     0.64159358    -0.38564505    -0.36930517
O       3.87701585     0.86838261     0.10227212    -1.04859345    -1.14289409    -0.27129211
O       2.25667061     5.00371027     9.83447077     1.04859345     1.14289409     0.27129211
O       4.61453280     0.86835892     5.07067618     0.64159358    -0.38564505     0.36930517
O       1.51915360     5.00373397     4.86606699    -0.64159358     0.38564505    -0.36930517
O       0.55954949     3.57173983     2.68416219     0.18703985     0.27461834     0.46635715
O       5.57413691     2.30035305     7.25258093    -0.18703985    -0.27461834    -0.46635715
O       3.20457856     2.30029837     2.28424096     0.51300418     0.53324159    -0.02597047
O       2.92910790     3.57179446     7.65250204    -0.51300418    -0.53324159     0.02597047
O       0.26519380     0.63569327     2.28420920     0.18703985     0.27461834    -0.46635715
O       5.86849259     5.23639956     7.65253375    -0.18703985    -0.27461834     0.46635715
O       2.63475222     0.63574795     7.25261264    -0.51300418    -0.53324159    -0.02597047
O       3.49893424     5.23634493     2.68413048     0.51300418     0.53324159     0.02597047
