# total energy = -19896.51401221 eV

CRYSTAL
PRIMVEC
        6.86173516     0.00000000     0.00000000
        2.80886339     6.74118137     0.00000000
        0.00000000     0.00000000    12.54426752
PRIMCOORD
24 1
Ti      4.15157887     3.99481796     4.65383378    -0.36521763    -1.87290202     0.40506254
Ti      5.51901979     2.74636360     7.89043388     0.36521763     1.87290202    -0.40506254
Ti      7.06213792     2.74636589     1.61824990     0.13139242    -1.10621343     0.10259425
Ti      2.60846080     3.99481594    10.92601783    -0.13139242     1.10621343    -0.10259425
Ti      2.74714730     0.62422725     1.61830019    -0.36521763    -1.87290202    -0.40506254
Ti      6.92345140     6.11695451    10.92596754     0.36521763     1.87290202     0.40506254
Ti      1.20402907     0.62422477     7.89038353    -0.13139242     1.10621343     0.10259425
Ti      8.46656963     6.11695699     4.65388407     0.13139242    -1.10621343    -0.10259425
O       3.16083104     2.37368463     6.40124372     1.74660322     1.94780446    -0.72577873
O       6.50976756     4.36749695     6.14302394    -1.74660322    -1.94780446     0.72577873
O       2.24818512     2.37371187     0.12915027    -0.28174107    -0.69248807     1.52059160
O       7.42241363     4.36746982    12.41511698     0.28174107     0.69248807    -1.52059160
O       5.10533597     0.99690610     0.12910954    -1.74660322    -1.94780446    -0.72577873
O       4.56526269     5.74427546    12.41515770     1.74660322     1.94780446     0.72577873
O       6.01798196     0.99687891     6.40128437     0.28174107     0.69248807     1.52059160
O       3.65261658     5.74430274     6.14298322    -0.28174107    -0.69248807    -1.52059160
O       1.95781268     4.10036885     3.38851963     0.60278122     2.63272834     2.51682168
O       7.71278591     2.64081273     9.15574803    -0.60278122    -2.63272834    -2.51682168
O       4.78051121     2.64075000     2.88365410     0.48678766     2.08559224     1.64125608
O       4.89008738     4.10043158     9.66061336    -0.48678766    -2.08559224    -1.64125608
O       0.55338108     0.72977793     2.88361399     0.60278122     2.63272834    -2.51682168
O       9.11721758     6.01140363     9.66065339    -0.60278122    -2.63272834     2.51682168
O       3.48565580     0.72984073     9.15578800    -0.48678766    -2.08559224     1.64125608
O       6.18494280     6.01134084     3.38847959     0.48678766     2.08559224    -1.64125608
