# total energy = -19075.37884832 eV

CRYSTAL
PRIMVEC
        7.60600008     0.00000000     0.00000000
        0.00000000     7.60600008     0.00000000
       -1.89786986    -1.89786986     4.85670466
PRIMCOORD
22 1
Ti      3.88560398     6.67193699     1.15713401     0.43205271    -0.13765049    -0.42505930
Ti      3.76118297     2.86529102     1.24363099     0.40254286     0.42481582     0.29990155
Ti     -0.07256301     6.59421001     1.05861200    -0.68013057    -1.21626569     0.46861278
Ti     -0.09483899     2.70664300     1.13219399    -0.18982513     1.81251167     0.35905315
Ti      5.74603725     2.77281322     3.58518481    -0.88699030    -0.19035092     0.54331132
Ti     -1.35124675    -0.95551276     3.82479579    -1.48230683    -0.25531630    -2.34757901
Ti      1.89799422     2.91124620     3.65950680     0.47202181     0.13277644    -0.52919622
Ti      1.58798425    -0.79454075     3.70748879     0.30884900    -0.17555576    -0.04590346
O       3.78235700     4.81740701     0.84287802    -0.47792763     0.11220401    -0.26716883
O       3.89761900     1.00733599     0.72782102    -0.49056924     0.10716233     1.75512849
O      -0.17680098     4.57493402     0.71722901     0.73774053     1.70661612    -0.70489853
O       7.12173702     0.96681700     0.53786899     0.71093060    -1.58380116     2.39533238
O       5.74501022     4.77415624     4.04162882     0.63176476    -0.55299153    -0.09575563
O       5.49589125     0.78566920     3.89866984     1.55482945     1.35593140    -0.03794050
O       2.15447321     4.88134924     4.11979084    -0.70276760    -0.44783132    -0.11737553
O       2.12144720     1.06181521     4.03457483    -1.16042362    -1.07232371     0.00654397
O       3.82210223     2.87505323     3.23601181    -0.47821508     0.31393593    -0.64719344
O      -0.01472076     2.93997524     3.21407582     0.24209825    -0.63330640     0.26503173
O       5.70135998     6.43469699     1.95327499     0.15269453     0.92801021    -0.51231846
O       5.67868701     2.96326602     1.59620301    -0.31507261    -0.69607142     0.65589637
O       1.69921598     6.57601102     1.83165900     0.87307985     0.50293908    -0.69379162
O       1.83660998     2.88545500     1.66262798     0.34562427    -0.43543834    -0.32463069
