# total energy = -19884.79394880 eV

CRYSTAL
PRIMVEC
        9.08344571     0.00000000     0.00000000
        0.00003041     4.65473813     0.00000000
        0.00000000     0.00000000    13.72364306
PRIMCOORD
24 1
Ti      3.29233035     2.75839359     5.09137369     0.37676934    -0.52646314     2.73774483
Ti      5.79114598     1.89634474     8.63226950    -0.37676934     0.52646314    -2.73774483
Ti      7.83389772     1.89634640     1.77039308     0.37600187     0.52647033    -2.73835521
Ti      1.24957867     2.75839215    11.95325033    -0.37600187    -0.52647033     2.73835521
Ti      3.29231522     0.43102460     1.77044811     0.37676934    -0.52646314    -2.73774483
Ti      5.79116118     4.22371388    11.95319529    -0.37676934     0.52646314     2.73774483
Ti      1.24956347     0.43102281     8.63221447    -0.37600187    -0.52647033    -2.73835521
Ti      7.83391286     4.22371567     5.09142873     0.37600187     0.52647033     2.73835521
O       2.87497874     1.63901249     7.00307002     0.70096423     1.32776265    -2.44997477
O       6.20849766     3.01572585     6.72057318    -0.70096423    -1.32776265     2.44997477
O       1.66681888     1.63903122     0.14129259    -0.70116915     1.32811283    -2.45143696
O       7.41665758     3.01570711    13.58235020     0.70116915    -1.32811283     2.45143696
O       6.20848246     0.68835678     0.14124808    -0.70096423    -1.32776265    -2.44997477
O       2.87499387     3.96638156    13.58239478     0.70096423     1.32776265     2.44997477
O       7.41664245     0.68833805     7.00311453     0.70116915    -1.32811283    -2.45143696
O       1.66683381     3.96640036     6.72052867    -0.70116915     1.32811283     2.45143696
O       0.33004122     2.83127564     3.70709835    -2.29780115     0.72527556     0.04173031
O       8.75343511     1.82346277    10.01654484     2.29780115    -0.72527556    -0.04173031
O       4.87177544     1.82341932     3.15476686    -2.29646237    -0.72518737    -0.04172593
O       4.21170088     2.83131909    10.56887613     2.29646237     0.72518737     0.04172593
O       0.33002608     0.50390650     3.15472304    -2.29780115     0.72527556    -0.04173031
O       8.75345031     4.15083183    10.56891995     2.29780115    -0.72527556     0.04173031
O       4.21168575     0.50394996    10.01658860     2.29646237     0.72518737    -0.04172593
O       4.87179064     4.15078838     3.70705453    -2.29646237    -0.72518737     0.04172593
