# total energy = -19924.66119543 eV

CRYSTAL
PRIMVEC
        6.18050250     0.00000000     0.00000000
        2.81746083     5.94398783     0.00000000
        0.00000000     0.00000000    11.36740471
PRIMCOORD
24 1
Ti      3.90975951     3.52240165     4.21722604     0.36345822    -2.69875249     0.64817895
Ti      5.08820361     2.42158610     7.15017873    -0.36345822     2.69875249    -0.64817895
Ti      6.47812115     2.42158811     1.46643094    -1.27771456    -1.15563931     0.53239082
Ti      2.51984208     3.52239987     9.90097402     1.27771456     1.15563931    -0.53239082
Ti      2.50102924     0.55040783     1.46647650     0.36345822    -2.69875249    -0.64817895
Ti      6.49693392     5.39358010     9.90092846    -0.36345822     2.69875249     0.64817895
Ti      1.11111166     0.55040564     7.15013317     1.27771456     1.15563931     0.53239082
Ti      7.88685155     5.39358228     4.21727166    -1.27771456    -1.15563931    -0.53239082
O       2.94824385     2.09297913     5.80069962     1.77389652     2.11476296    -0.97141301
O       6.04971926     3.85100861     5.56670521    -1.77389652    -2.11476296     0.97141301
O       2.12620652     2.09300314     0.11703382     0.19349795    -1.08692141     1.64776381
O       6.87175669     3.85098471    11.25037070    -0.19349795     1.08692141    -1.64776381
O       4.64098897     0.87901467     0.11699689    -1.77389652    -2.11476296    -0.97141301
O       4.35697416     5.06497313    11.25040757     1.77389652     2.11476296     0.97141301
O       5.46302638     0.87899071     5.80073648    -0.19349795     1.08692141     1.64776381
O       3.53493669     5.06499711     5.56666829     0.19349795    -1.08692141    -1.64776381
O       1.93829129     3.61547038     3.07061961     0.66288232     2.81606169     2.63822459
O       7.05967177     2.32851738     8.29678522    -0.66288232    -2.81606169    -2.63822459
O       4.41851054     2.32846207     2.61311893     0.85182916     1.94017393     1.45838399
O       4.57945258     3.61552568     8.75428565    -0.85182916    -1.94017393    -1.45838399
O       0.52956099     0.64347638     2.61308262     0.66288232     2.81606169    -2.63822459
O       8.46840207     5.30051138     8.75432196    -0.66288232    -2.81606169     2.63822459
O       3.17072227     0.64353168     8.29682141    -0.85182916    -1.94017393     1.45838399
O       5.82724085     5.30045607     3.07058330     0.85182916     1.94017393    -1.45838399
