# total energy = -4973.81372472 eV

CRYSTAL
PRIMVEC
        5.36434032     0.00000000     0.00000000
       -0.00000760     2.88849130     0.00000000
       -2.68219995    -1.44431064     5.78705963
PRIMCOORD
6 1
Ti     -0.00022960     2.16646800     1.44676468    -0.00774159    -0.01092822    16.65374095
Ti      2.68236198    -0.72228718     4.34029449     0.00774159     0.01092822   -16.65374095
O       0.00005694     0.72211151     0.94266466     0.00692707     0.01091742   -10.64825520
O       2.68207532     0.72206920     4.84439462    -0.00692707    -0.01091742    10.64825520
O      -0.00002191    -0.72213109     3.83619447    -0.00214404    -0.00006479    -2.18526212
O       2.68215406     2.16631180     1.95086481     0.00214404     0.00006479     2.18526212
