# total energy = -19517.00151919 eV

CRYSTAL
PRIMVEC
        5.93400000     0.00000000     0.00000000
        0.00000000     9.29699974     0.00000000
        0.00000000     0.00000000     4.64899994
PRIMCOORD
23 1
Ti      4.55406899     7.07463701     2.27677401    -0.89143831    -1.24155789    -0.42508296
Ti      4.43890398     2.25413199     2.38412999     1.16183181     0.91861642    -0.44808663
Ti      1.48580901     7.00935400     2.35270999    -0.05948301     0.77610577    -0.16353431
Ti      1.47106301     2.28288801     2.25298701    -1.31072625     0.37176777    -0.13721186
Ti      2.93547300     4.46976301     0.02776900     0.24142308     0.60734596     0.66831429
Ti      2.99105301     0.12858198     0.00234198    -2.27955325    -1.48963113    -0.30431871
Ti      0.00053002     4.65323998     0.00831798    -0.30378212     0.11386649     0.58617986
Ti      5.80486901     0.03613201     4.63641902     2.52998188    -0.63331282    -1.18781873
O       4.50590200     5.61934401     0.94307699    -0.41743444    -0.73930916    -0.79434133
O       4.47493302     1.03702802     0.83463000    -0.63438189    -0.53017838    -0.10030983
O       1.52304198     5.52412201     1.02398999     0.75194254    -0.01296634    -1.08598527
O       1.36359299     0.99441899     0.84866801     0.69254746    -0.45303292     0.14313285
O       4.35222501     8.31501700     3.64225298     0.07205391     1.11912989     2.29247253
O       4.55019498     3.58694099     3.67586701    -0.71166774     1.93890587     1.20907868
O       1.41902198     8.54823399     3.67519702     0.68988380    -1.11060642     0.73345039
O       1.57222699     3.55659601     3.82668898    -0.55369010     1.18020621    -0.83507508
O       2.98746403     1.42887700     3.26243902    -0.29249317    -0.17779648    -0.45655250
O       0.15606199     6.04969000     3.28391701    -0.52364906    -0.45696671     0.53145391
O       5.88608898     1.27934299     3.10785899    -0.04912609     0.36214696     0.29108215
O       2.96984999     7.90533502     1.49514502     0.30847464    -0.29659306    -0.20766217
O       2.91534802     3.20767198     1.25636601     0.64754954    -1.20417533     2.13544389
O       0.03455602     7.87860199     1.60701198     0.58010974     1.63463781    -2.52002270
O       0.00984100     3.32701802     1.46932800     0.35162728    -0.67660327     0.07539351
