# total energy = -19517.90086590 eV

CRYSTAL
PRIMVEC
        5.93400000     0.00000000     0.00000000
        0.00000000     9.29699974     0.00000000
        0.00000000     0.00000000     4.64899994
PRIMCOORD
23 1
Ti      4.55828399     7.02526800     2.30291298     1.55019786    -0.15114056     0.45369086
Ti      4.40220199     2.27845499     2.35149002     1.40331814    -0.17205135    -0.07053850
Ti      1.52989398     7.14765199     2.24756501    -1.33446037    -0.43648478    -0.14006398
Ti      1.46862800     2.32936602     2.32077800    -1.41883964    -0.37608234     0.15623263
Ti      2.97353201     4.44525199     0.06659002    -0.48179123     1.49958645     0.24698155
Ti      2.98431902     0.04162101     4.62394700     0.13976136    -0.86260055    -0.21434112
Ti      5.91562602     4.61040398     0.03290800     0.54191958     1.33077624    -0.16333556
Ti      5.93147101     0.09446602     0.05357697    -0.32593553    -0.38585948    -0.70515204
O       4.49721101     5.53934898     0.90620302    -0.78578290    -0.01322190    -0.15824169
O       4.37900599     0.85603501     0.98731103    -0.41023586     0.35935911    -0.73672649
O       1.51354399     5.63785500     0.86065002     0.40220836    -0.49739989     0.01734287
O       1.49903500     0.79291999     0.97275003     0.23146956     1.17504215     0.05275597
O       4.43381700     8.42270701     3.71681501    -0.50027850    -0.58030180     0.09838844
O       4.42733802     3.68612500     3.70597698    -0.23968887     0.55549939     0.07075550
O       1.21814100     8.31584601     3.80468902     2.40069211    -0.13964386    -0.79630308
O       1.49410699     3.77058799     3.64516002     0.36403826    -0.19270888     0.21402308
O       2.95273301     1.36966302     3.16935399    -0.81881284    -0.15464060     0.91836908
O       0.05165400     6.05929198     3.23250601    -0.45664377     0.01132571    -0.58586233
O       5.89694098     1.33689801     3.18822001     0.21938074     0.87435383     0.30362991
O       3.09949302     7.90804297     1.40911800    -1.28518953    -0.72318988     0.51884007
O       2.90603502     3.27299902     1.40242200     0.23152895    -0.89912565     0.43583814
O       0.01009802     7.94634699     1.44337598    -0.25803472    -0.31080869     0.07233390
O       5.83183699     3.15282001     1.33340401     0.83117908     0.08931759     0.01138331
