# total energy = -19911.66143626 eV

CRYSTAL
PRIMVEC
        7.67046534     0.00000000     0.00000000
        0.00003019     5.44246305     0.00000000
        0.00000000     0.00000000    11.91705415
PRIMCOORD
24 1
Ti      2.78019277     3.22519854     4.42114209     0.57584222    -0.65532533     1.54519244
Ti      4.89030289     2.21726451     7.49591219    -0.57584222     0.65532533    -1.54519244
Ti      6.61529321     2.21726640     1.53733741     0.57563782     0.65572334    -1.54582081
Ti      1.05520245     3.22519690    10.37971694    -0.57563782    -0.65572334     1.54582081
Ti      2.78017768     0.50396715     1.53738518     0.57584222    -0.65532533    -1.54519244
Ti      4.89031798     4.93849609    10.37966916    -0.57584222     0.65532533     1.54519244
Ti      1.05518735     0.50396512     7.49586435    -0.57563782    -0.65572334    -1.54582081
Ti      6.61530831     4.93849812     4.42118986     0.57563782     0.65572334     1.54582081
O       2.42776140     1.91638378     6.08118153     0.74221914     1.45969397    -1.56990280
O       5.24273426     3.52607933     5.83587275    -0.74221914    -1.45969397     1.56990280
O       1.40753753     1.91640572     0.12269276    -0.74212066     1.45979501    -1.57061191
O       6.26295826     3.52605739    11.79436113     0.74212066    -1.45979501     1.57061191
O       5.24271923     0.80484774     0.12265407    -0.74221914    -1.45969397    -1.56990280
O       2.42777643     4.63761531    11.79439982     0.74221914     1.45969397     1.56990280
O       6.26294316     0.80482587     6.08122016     0.74212066    -1.45979501    -1.57061191
O       1.40755243     4.63763730     5.83583406    -0.74212066     1.45979501     1.57061191
O       0.27870426     3.31041454     3.21909365    -1.88642397     0.54327224     0.17780393
O       7.39179140     2.13204857     8.69796063     1.88642397    -0.54327224    -0.17780393
O       4.11394551     2.13199782     2.73947139    -1.88590281    -0.54300536    -0.17784944
O       3.55655015     3.31046529     9.17758269     1.88590281     0.54300536     0.17784944
O       0.27868917     0.58918295     2.73943329    -1.88642397     0.54327224    -0.17780393
O       7.39180649     4.85328009     9.17762072     1.88642397    -0.54327224     0.17780393
O       3.55653512     0.58923370     8.69799860     1.88590281     0.54300536    -0.17784944
O       4.11396054     4.85322941     3.21905562    -1.88590281    -0.54300536     0.17784944
