# total energy = -19915.35574057 eV

CRYSTAL
PRIMVEC
        6.43665582     0.00000000     0.00000000
        2.32647596     6.44340967     0.00000000
        0.00000000     0.00000000    11.70624098
PRIMCOORD
24 1
Ti      3.71164575     3.81835850     4.34293193    -0.20002856    -2.13155047     0.63656630
Ti      5.05148627     2.62505100     7.36330918     0.20002856     2.13155047    -0.63656630
Ti      6.49900935     2.62505319     1.51014189    -0.14545662    -0.91317288     0.05057362
Ti      2.26412269     3.81835650    10.19609936     0.14545662     0.91317288    -0.05057362
Ti      2.54840793     0.59665384     1.51018882    -0.20002856    -2.13155047    -0.63656630
Ti      6.21472411     5.84675579    10.19605242     0.20002856     2.13155047     0.63656630
Ti      1.10088474     0.59665147     7.36326225     0.14545662     0.91317288     0.05057362
Ti      7.66224730     5.84675823     4.34297886    -0.14545662    -0.91317288    -0.05057362
O       2.85643400     2.26883401     5.97360517     1.83875905     2.09667396    -0.75479415
O       5.90669802     4.17457549     5.73263594    -1.83875905    -2.09667396     0.75479415
O       2.00032450     2.26886000     0.12052234    -0.42428797    -0.45550092     1.37102919
O       6.76280758     4.17454955    11.58571845     0.42428797     0.45550092    -1.37102919
O       4.74346017     0.95287070     0.12048436    -1.83875905    -2.09667396    -0.75479415
O       4.01967184     5.49053880    11.58575643     1.83875905     2.09667396     0.75479415
O       5.59956973     0.95284470     5.97364316     0.42428797     0.45550092     1.37102919
O       3.16356222     5.49056482     5.73259795    -0.42428797    -0.45550092    -1.37102919
O       1.64895311     3.91924692     3.16214774     0.58516067     2.34225219     2.27943781
O       7.11417891     2.52416258     8.54409337    -0.58516067    -2.34225219    -2.27943781
O       4.36355911     2.52410256     2.69101003     0.68570164     1.96196481     1.28356948
O       4.39957290     3.91930694     9.01523089    -0.68570164    -1.96196481    -1.28356948
O       0.48571527     0.69754212     2.69097262     0.58516067     2.34225219    -2.27943781
O       8.27741675     5.74586738     9.01526830    -0.58516067    -2.34225219     2.27943781
O       3.23633506     0.69760214     8.54413065    -0.68570164    -1.96196481     1.28356948
O       5.52679695     5.74580736     3.16211040     0.68570164     1.96196481    -1.28356948
