# total energy = -19942.88733058 eV

CRYSTAL
PRIMVEC
        5.87447909     0.00000000     0.00000000
        0.00003220     6.25222222     0.00000000
        0.00000000     0.00000000    10.51402585
PRIMCOORD
24 1
Ti      2.12923521     3.70506111     3.90062868     0.03251187    -0.75145171     0.58390854
Ti      3.74527608     2.54716118     6.61339748    -0.03251187     0.75145171    -0.58390854
Ti      5.06637191     2.54716333     1.35634239     0.03320684     0.75165535    -0.58397616
Ti      0.80813938     3.70505920     9.15768389    -0.03320684    -0.75165535     0.58397616
Ti      2.12921923     0.57895011     1.35638455     0.03251187    -0.75145171    -0.58390854
Ti      3.74529206     5.67327235     9.15764173    -0.03251187     0.75145171     0.58390854
Ti      0.80812340     0.57894779     6.61335531    -0.03320684    -0.75165535    -0.58397616
Ti      5.06638789     5.67327468     3.90067084     0.03320684     0.75165535     0.58397616
O       1.85932106     2.20151379     5.36522703     1.23362424     1.12720264     0.04267544
O       4.01519023     4.05070855     5.14879913    -1.23362424    -1.12720264    -0.04267544
O       1.07797551     2.20153897     0.10824779    -1.23333422     1.12734971     0.04185218
O       4.79653584     4.05068337    10.40577806     1.23333422    -1.12734971    -0.04185218
O       4.01517425     0.92459738     0.10821368    -1.23362424    -1.12720264     0.04267544
O       1.85933704     5.32762490    10.40581218     1.23362424     1.12720264    -0.04267544
O       4.79651986     0.92457220     5.36526114     1.23333422    -1.12734971     0.04185218
O       1.07799137     5.32765014     5.14876501    -1.23333422     1.12734971    -0.04185218
O       0.21345297     3.80295599     2.84010075     0.43336268    -0.25322959     0.29493727
O       5.66105832     2.44926629     7.67392540    -0.43336268     0.25322959    -0.29493727
O       3.15069723     2.44920802     2.41694575     0.43335728     0.25337177    -0.29526097
O       2.72381406     3.80301426     8.09708022    -0.43335728    -0.25337177     0.29526097
O       0.21343700     0.67684482     2.41691218     0.43336268    -0.25322959    -0.29493727
O       5.66107429     5.57537747     8.09711380    -0.43336268     0.25322959     0.29493727
O       2.72379808     0.67690309     7.67395892    -0.43335728    -0.25337177    -0.29526097
O       3.15071321     5.57531920     2.84006718     0.43335728     0.25337177     0.29526097
