# total energy = -19519.99455575 eV

CRYSTAL
PRIMVEC
        5.17575250     0.00001323     0.00000000
        0.00001429     5.50856584     0.00000000
        0.00000000     0.00000000     9.26345890
PRIMCOORD
23 1
Ti      1.85704983     3.38359373     3.39484835    -0.05760636    -0.03220205     0.06596168
Ti      3.37025103     2.17424560     5.77569838     0.00244281     0.01934473    -0.05624522
Ti      4.56652572     1.94505580     1.42198834     0.00137991    -0.02979138     0.04734148
Ti      0.85339360     3.29890677     7.94874931    -0.00730862     0.00208902    -0.03195805
Ti      2.02188827     0.51038525     1.24317739    -0.05267935     0.00429246    -0.00359260
Ti      3.16511304     5.16644688     7.92719737    -0.01290694    -0.04758471    -0.07812068
Ti      0.63902018     0.71810719     5.65266574    -0.03607902     0.00719601    -0.06300516
Ti      4.56688059     4.83655218     3.56804618    -0.03415429     0.04031131    -0.02231358
O       1.54901805     1.95669417     4.66236503    -0.02166309    -0.04859875    -0.03650376
O       3.55897999     3.53749297     4.51559301     0.03269442    -0.02966077    -0.01063794
O       0.73084223     2.10836190     0.10621536     0.04247567    -0.00012804    -0.03151685
O       3.51589104     0.91289644     0.05381399     0.00836252    -0.04956754     0.10037282
O       1.73321711     4.68904309     9.15404173    -0.07664101    -0.02214723    -0.02032561
O       4.07888121     0.78013962     4.70137176    -0.00262175    -0.03136644    -0.00987535
O       1.01105554     4.62878112     4.61878053     0.06061944     0.04049798     0.00908860
O       0.17048601     3.34994088     2.41559925    -0.01874695     0.02203488    -0.03115510
O       4.94757824     2.13182735     6.83193560     0.03654362    -0.00503756     0.02949905
O       2.76367679     2.14518170     2.08386846     0.09062911     0.03970196     0.08528944
O       2.49170029     3.38887430     7.14797422     0.00098602     0.05728471    -0.01548987
O       0.26060251     0.53282841     2.17844052    -0.03649811     0.03702467     0.02598769
O       4.90219266     4.75128358     7.39387395     0.00509310     0.05184220    -0.03992822
O       2.32157117     0.70729860     6.73647947     0.05948069     0.02557066     0.08079515
O       2.80737277     4.88011765     2.46069902     0.01619873    -0.05110609     0.00633134
