# total energy = -19952.95099113 eV

CRYSTAL
PRIMVEC
        6.19019994     0.00000000     0.00000000
        0.00002615     4.86957220     0.00000000
        0.00000000     0.00000000     9.85575191
PRIMCOORD
24 1
Ti      2.24366526     2.88570401     3.65641366     0.18722266     0.35596165    -0.59497046
Ti      3.94656088     1.98386835     6.19933830    -0.18722266    -0.35596165     0.59497046
Ti      5.33865832     1.98387004     1.27142294     0.18851258    -0.35596911     0.59561967
Ti      0.85156782     2.88570254     8.58432913    -0.18851258     0.35596911    -0.59561967
Ti      2.24365230     0.45091802     1.27146245     0.18684959     0.35509056     0.59432229
Ti      3.94657385     4.41865450     8.58428962    -0.18684959    -0.35509056    -0.59432229
Ti      0.85155486     0.45091617     6.19929878    -0.18802253     0.35518544     0.59526305
Ti      5.33867129     4.41865636     3.65645318     0.18802253    -0.35518544    -0.59526305
O       1.95924661     1.71465918     5.02931476     0.90830861     0.11748403     0.22416994
O       4.23097960     3.15491318     4.82643720    -0.90830861    -0.11748403    -0.22416994
O       1.13590803     1.71467883     0.10147051    -0.90817799     0.11779231     0.22334950
O       5.05431823     3.15489359     9.75428118     0.90817799    -0.11779231    -0.22334950
O       4.23096663     0.72012703     0.10143853    -0.90844410    -0.11777200     0.22360815
O       1.95925957     4.14944534     9.75431315     0.90844410     0.11777200    -0.22360815
O       5.05430526     0.72010744     5.02934674     0.90799005    -0.11718347     0.22377013
O       1.13592089     4.14946498     4.82640523    -0.90799005     0.11718347    -0.22377013
O       0.22492020     2.96194985     2.66228447    -0.39033577    -0.03819889     0.41995258
O       5.96530600     1.90762252     7.19346749     0.39033577     0.03819889    -0.41995258
O       3.32002684     1.90757710     2.26562285    -0.38981075     0.03864627    -0.42019195
O       2.87019936     2.96199532     7.59012894     0.38981075    -0.03864627     0.42019195
O       0.22490723     0.52716375     2.26559137    -0.39012828    -0.03848583    -0.42003588
O       5.96531897     4.34240867     7.59016042     0.39012828     0.03848583     0.42003588
O       2.87018639     0.52720916     7.19349892     0.38960403    -0.03857967    -0.42017472
O       3.32003981     4.34236320     2.66225299    -0.38960403     0.03857967     0.42017472
