# total energy = -19953.66974057 eV

CRYSTAL
PRIMVEC
        5.25982817     0.00000000     0.00000000
        1.64248525     5.35167076     0.00000000
        0.00000000     0.00000000     9.52406795
PRIMCOORD
24 1
Ti      2.87976994     3.17139517     3.53336128     1.47460277    -2.36945705     1.05182327
Ti      4.02254339     2.18027572     5.99070672    -1.47460277     2.36945705    -1.05182327
Ti      5.20541257     2.18027756     1.22863467    -2.97095837    -0.30373584     1.05668188
Ti      1.69690085     3.17139353     8.29543344     2.97095837     0.30373584    -1.05668188
Ti      2.05852744     0.49555987     1.22867285     1.47444285    -2.36956555    -1.05309931
Ti      4.84378592     4.85611117     8.29539525    -1.47444285     2.36956555     1.05309931
Ti      0.87565824     0.49555787     5.99066854     2.97064984     0.30387340     1.05243982
Ti      6.02665512     4.85611317     3.53339947    -2.97064984    -0.30387340    -1.05243982
O       2.24311578     1.88441429     4.86005898     0.48584483     1.12821591    -0.86751213
O       4.65919757     3.46725665     4.66400903    -0.48584483    -1.12821591     0.86751213
O       1.54352961     1.88443588     0.09805564     0.42868096    -0.60961778     0.46461883
O       5.35878379     3.46723510     9.42601210    -0.42868096     0.60961778    -0.46461883
O       3.83795504     0.79142120     0.09802474    -0.48586360    -1.12810510    -0.86771884
O       3.06435831     4.56024974     9.42604300     0.48586360     1.12810510     0.86771884
O       4.53754126     0.79139965     4.86008988    -0.42859869     0.60962061     0.46537447
O       2.36477204     4.56027135     4.66397813     0.42859869    -0.60962061    -0.46537447
O       1.19015437     3.25518957     2.57268836     0.06523585     0.22146282     0.06640622
O       5.71215898     2.09648137     6.95137964    -0.06523585    -0.22146282    -0.06640622
O       3.46444353     2.09643146     2.18937593     1.32308838    -0.15230707    -0.83222192
O       3.43786981     3.25523947     7.33469191    -1.32308838     0.15230707     0.83222192
O       0.36891178     0.57935413     2.18934551     0.06483245     0.22263293    -0.06807024
O       6.53340151     4.77231682     7.33472233    -0.06483245    -0.22263293     0.06807024
O       2.61662728     0.57940402     6.95141001    -1.32268291     0.15205535    -0.83277265
O       4.28568606     4.77226692     2.57265794     1.32268291    -0.15205535     0.83277265
