# total energy = -19518.28204980 eV

CRYSTAL
PRIMVEC
        5.93400000     0.00000000     0.00000000
        0.00000000     9.29699974     0.00000000
        0.00000000     0.00000000     4.64899994
PRIMCOORD
23 1
Ti      4.51274998     7.05066502     2.25574900     0.94859755     0.31501450     0.23165108
Ti      4.42151400     2.24220000     2.32477202     0.13871158     0.26482681    -0.09254792
Ti      1.43670602     7.06447099     2.21884502    -1.02305930     0.32499424     0.06205180
Ti      1.44353902     2.31002899     2.37943598     0.17678783    -0.05856821    -0.54276805
Ti      2.98438898     4.58920900     0.20040699     0.14414535    -0.56293785    -0.11690682
Ti      2.94442699     9.21679002     4.58238298    -0.06116091     0.44508949     0.16198753
Ti      0.01347201     4.62881802     0.02701900    -0.16955712    -0.49214661    -0.47581084
Ti      5.91274697     0.09542299     4.61099200     0.28223858    -0.32890412     0.79859548
O       4.42910500     5.61829402     0.99777498    -0.15457401    -0.59154447    -0.89493295
O       4.41984699     0.93624399     0.84436602     0.15634344     0.09105797     0.58174187
O       1.50211900     5.56069302     0.96937901     0.23106616     0.35560710    -0.40352065
O       1.53624998     0.94184200     0.92179200    -0.10775832    -0.67777338    -0.36023406
O       4.54321699     8.36349499     3.69812701    -0.82486394     0.04318812     0.32486260
O       4.47034902     3.75323097     3.79163300    -0.31318825     0.38538974    -0.50212918
O       1.51669899     8.36885100     3.61499400     0.00341725     0.08147649     0.92866249
O       1.47617201     3.64047299     3.92140700     0.13783252     0.79403331    -1.34244982
O       2.91184100     1.38350402     3.28636599     0.69581636     0.40685691    -0.73822030
O       0.01713301     6.10481101     3.13355399     0.24932537    -0.56574575     0.78678434
O       0.03334102     1.32880699     3.23617998    -0.42855189     1.01431703    -0.85937510
O       2.99197399     7.85816902     1.36974298    -0.11855387    -0.23515215     0.12850970
O       2.98927900     3.26584698     1.38316498     0.06693432    -0.96734527     1.60877404
O       5.91061100     7.98372702     1.41024599     0.32838065    -0.25501470    -0.29798660
O       0.00899099     3.17455702     1.34632699    -0.35832990     0.21328054     1.01326108
