# total energy = -39033.93483166 eV

CRYSTAL
PRIMVEC
        5.93200024     0.00000000     0.00000000
        0.00000000     9.29399984     0.00000000
        0.00000000     0.00000000     9.29399984
PRIMCOORD
46 1
Ti      4.41809599     7.14467098     6.89416799    -0.09752249     0.38562242     0.11453498
Ti      4.50926000     6.83243402     2.39400899    -0.55836642     0.79568653    -1.17488042
Ti      4.43501802     2.15343602     7.16847702     0.08364110     0.41380687    -0.41342737
Ti      4.31407901     2.52818802     2.05508901     1.40987085    -0.43432325     1.05666980
Ti      1.41978600     6.74879099     7.08264902    -0.20861553     0.98960358    -0.28373419
Ti      1.54347399     7.03483399     2.21007799     0.78362883     0.58199436    -0.27604608
Ti      1.44051700     2.50220701     6.71269300    -0.40736651    -0.66424321     0.70562513
Ti      1.50754798     1.99079699     2.73731199     0.39854633     0.75083156    -1.30448695
Ti      3.04556901     4.60274498     4.63855901    -0.12866885     0.18263041     1.01717970
Ti      2.92847098     4.84800800     9.03529201     1.32050365    -0.66205005    -0.11626893
Ti      2.95046099     9.22535502     4.78699900    -0.16064824     0.50640621    -0.21213820
Ti      2.98816000     0.10217402     0.04480602    -1.37696329    -1.11818501    -0.97748905
Ti      5.92321003     4.63598499     4.56273098     0.05665376     0.23364214     0.80677776
Ti      0.04615299     4.63224598     9.26617501    -1.10473736    -0.73201442     0.28623177
Ti      5.85285501     9.05743999     4.78309801     0.38735200     0.50942751    -0.20032706
Ti      0.01037902     0.03928998     0.12387002     1.34237783    -0.65370194    -1.28863713
O       4.54470202     5.65205500     5.49543499    -0.27068816    -0.35889888    -0.21652450
O       4.51595701     5.59549299     0.82012499    -0.64182292    -0.99841861     0.59634960
O       4.31061099     0.74290300     5.83576603     0.58122200    -0.44407210    -1.71358381
O       4.41014098     0.85756899     1.12522398     0.34926701     1.23257831    -0.59600482
O       1.45996400     5.54658500     5.62537600    -0.04427673    -0.17536370    -0.35620976
O       1.57073900     5.77400400     0.66066298    -0.13781941    -1.47670079     0.31974919
O       1.36839299     0.97880699     5.48136898     0.24568057    -0.16463242    -1.42139917
O       1.47842101     0.83365499     1.12426898     0.04150893     1.19450695     0.97420600
O       4.43102199     8.43835600     8.35722900    -0.07740335     1.06894116     0.47991998
O       4.39939100     8.08466398     4.05656299     0.59750994     1.29575806    -1.10446174
O       4.45183602     3.85139600     8.23318800     0.03258309    -0.36920798     1.64792141
O       4.48728698     3.77611699     3.64218398    -0.49152903    -0.47440573    -0.72431937
O       1.45008098     8.55954701     8.47013299     0.12180606    -0.82756951    -0.08188941
O       1.37892098     8.36505003     3.60006099    -0.26349781     1.23732920     1.25642736
O       1.54123001     4.01528098     7.94994402    -0.35625656     0.23979043     2.05830023
O       1.48038902     3.82766298     3.64861099     0.71449261    -1.55282219     0.22838475
O       3.10993099     6.12438602     7.78222500    -0.73237721     0.42461553    -0.04787653
O       3.07158199     6.13358301     3.25722499    -1.18556850    -0.98804446    -0.30391222
O       2.78874601     1.46344598     7.91447502     0.63048975     0.45848674     0.39066770
O       3.18751398     1.34676198     3.35861202    -0.64819540     1.05279669    -0.73798376
O       5.80675102     6.16902000     7.95683899     0.35687079     0.46388503    -1.11360021
O       0.09769702     5.98928701     3.09246200     0.18691413    -0.10124982     0.35136092
O       0.09659099     1.50321201     7.84438200    -0.23789681    -0.16892205     1.33201319
O       2.77667198     7.98539398     6.13601501    -0.19169664    -1.45734963     0.76704778
O       3.08578601     7.83162100     1.31099700    -0.25173192    -0.08249285     1.11636364
O       3.15144299     3.30533001     6.07742000    -1.62242840    -0.10640309    -1.38741355
O       0.02860002     7.98977202     6.20845000     1.35070769    -0.93249858     0.24816220
O       0.09562201     7.88137101     1.31799997    -0.87214448    -0.35090712     0.94831241
O       5.67897800     3.02233099     5.99325500     2.05241471     1.69535032    -1.27746028
O       0.18723900     3.24870301     1.26805199    -0.97581912    -0.41921338     0.62786851
