# total energy = -19941.20377361 eV

CRYSTAL
PRIMVEC
        5.80612627     0.00000000     0.00000000
        2.09857627     5.81221852     0.00000000
        0.00000000     0.00000000    10.55950717
PRIMCOORD
24 1
Ti      3.34805596     3.44431522     3.91750186     0.50665201    -2.61512347     0.93829925
Ti      4.55664680     2.36790314     6.64200543    -0.50665201     2.61512347    -0.93829925
Ti      5.86237170     2.36790512     1.36220962    -1.42514578    -0.76783093     0.43197352
Ti      2.04233108     3.44431342     9.19729779     1.42514578     0.76783093    -0.43197352
Ti      2.29876797     0.53820611     1.36225196     0.50665201    -2.61512347    -0.93829925
Ti      5.60593481     5.27401237     9.19725545    -0.50665201     2.61512347     0.93829925
Ti      0.99304297     0.53820397     6.64196309     1.42514578     0.76783093     0.43197352
Ti      6.91165981     5.27401456     3.91754420    -1.42514578    -0.76783093    -0.43197352
O       2.57662006     2.04658088     5.38843569     1.58850551     2.02331187    -0.88074020
O       5.32808270     3.76563749     5.17107160    -1.58850551    -2.02331187     0.88074020
O       1.80437435     2.04660433     0.10871607    -0.11775040    -0.57754429     1.19505716
O       6.10032847     3.76561409    10.45079092     0.11775040     0.57754429    -1.19505716
O       4.27879469     0.85952826     0.10868181    -1.58850551    -2.02331187    -0.88074020
O       3.62590807     4.95269010    10.45082519     1.58850551     2.02331187     0.88074020
O       5.05104045     0.85950481     5.38846995     0.11775040     0.57754429     1.19505716
O       2.85366225     4.95271357     5.17103734    -0.11775040    -0.57754429    -1.19505716
O       1.48742301     3.53532069     2.85238633     0.48691493     1.85246586     1.75669763
O       6.41727975     2.27689768     7.70712096    -0.48691493    -1.85246586    -1.75669763
O       3.93610842     2.27684354     2.42740088     1.07239698     1.40298235     0.59796220
O       3.96859433     3.53537483     8.13210623    -1.07239698    -1.40298235    -0.59796220
O       0.43813500     0.62921147     2.42736714     0.48691493     1.85246586    -1.75669763
O       7.46656776     5.18300690     8.13213997    -0.48691493    -1.85246586     1.75669763
O       2.91930632     0.62926561     7.70715458    -1.07239698    -1.40298235     0.59796220
O       4.98539644     5.18295276     2.85235265     1.07239698     1.40298235    -0.59796220
