# total energy = -4986.18649999 eV

CRYSTAL
PRIMVEC
        3.31096314     0.00000000     0.00000000
        0.00000000     3.45852190     0.00000000
        0.00000000    -0.00006045     4.50328332
PRIMCOORD
6 1
Ti      1.65548142     1.72923068     2.25164161     0.00000000     0.00000000     0.00000000
Ti      0.00000000     0.00000000     0.00000000     0.00000000     0.00000000     0.00000000
O       1.65548142     0.67400319     0.87762357     0.00000000    -1.53802085    -1.62045894
O       1.65548142     2.78445816     3.62565960     0.00000000     1.53802085     1.62045894
O       0.00000000     1.05520330     3.12926617    -0.00000000     1.53772466    -1.62003882
O       0.00000000     2.40325805     1.37401705    -0.00000000    -1.53772466     1.62003882
