# total energy = -4986.29217626 eV

CRYSTAL
PRIMVEC
        3.95939533     0.00000000     0.00000000
        1.86323800     3.49358777     0.00000000
       -2.91135386    -1.74681621     5.22901296
PRIMCOORD
6 1
Ti      1.39733508     2.62032537     1.30725289     0.00018101    -0.00018101     0.00000000
Ti      1.51394424    -0.87355394     3.92175942    -0.00018101     0.00018101     0.00000000
O       0.46585053     0.87339249     0.85176337    -0.00025865    -0.00038618    -2.57893750
O       2.44542862     0.87337893     4.37724900     0.00025865     0.00038618     2.57893750
O      -0.46581290    -0.87336987     3.46626985    -0.00038618    -0.00025865    -2.57893750
O       3.37709197     2.62014120     1.76274246     0.00038618     0.00025865     2.57893750
