# total energy = -19898.59048949 eV

CRYSTAL
PRIMVEC
        7.35474415     0.00000000     0.00000000
        0.00002316     2.96911699     0.00000000
        0.00000000     0.00000000    11.38331022
PRIMCOORD
24 1
Ti      2.66575484     1.75949594     4.22312692    -0.70805431     0.47994903     0.23026654
Ti      4.68901268     1.20962094     7.16018341     0.70805431    -0.47994903    -0.23026654
Ti      6.34300139     1.20962196     1.46848276    -0.70624399    -0.48021900    -0.22869148
Ti      1.01176613     1.75949508     9.91482767     0.70624399     0.48021900     0.22869148
Ti      2.66574336     0.27493750     1.46852840    -0.70760308     0.47542106    -0.22979757
Ti      4.68902415     2.69417949     9.91478203     0.70760308    -0.47542106     0.22979757
Ti      1.01175465     0.27493643     7.16013777     0.70619385     0.47558664    -0.22910620
Ti      6.34301286     2.69418055     4.22317256    -0.70619385    -0.47558664     0.22910620
O       2.32783121     1.04547654     5.80881606     6.44187693    -0.81296538     2.12649028
O       5.02693636     1.92364034     5.57449427    -6.44187693     0.81296538    -2.12649028
O       1.34960034     1.04548850     0.11719756    -6.44021420    -0.81327083     2.12660624
O       6.00516728     1.92362838    11.26611245     6.44021420     0.81327083    -2.12660624
O       5.02692488     0.43908185     0.11716064    -6.44066903     0.81316284     2.12645248
O       2.32784264     2.53003504    11.26614938     6.44066903    -0.81316284    -2.12645248
O       6.00515581     0.43906989     5.80885304     6.44118197     0.81328368     2.12734543
O       1.34961165     2.53004705     5.57445729    -6.44118197    -0.81328368    -2.12734543
O       0.26722897     1.80598525     3.07491607     1.18451718    -0.50337359     1.73126273
O       7.08753855     1.16313163     8.30839426    -1.18451718     0.50337359    -1.73126273
O       3.94461073     1.16310403     2.61677524     1.18458634     0.50348672    -1.73158977
O       3.41015684     1.80601290     8.76653487    -1.18458634    -0.50348672     1.73158977
O       0.26721750     0.32142676     2.61673889     1.18437397    -0.50288971    -1.73179572
O       7.08755002     2.64769012     8.76657123    -1.18437397     0.50288971     1.73179572
O       3.41014536     0.32145436     8.30843051    -1.18465576    -0.50334685    -1.73126067
O       3.94462221     2.64766252     3.07487976     1.18465576     0.50334685     1.73126067
