# total energy = -19514.79076075 eV

CRYSTAL
PRIMVEC
        5.93400000     0.00000000     0.00000000
        0.00000000     9.29699974     0.00000000
        0.00000000     0.00000000     4.64899994
PRIMCOORD
23 1
Ti      4.31179698     7.06302099     2.10328197    -0.12356006     1.64928539     1.04464063
Ti      4.55502098     2.36957598     2.13459202    -0.82539873     0.03839378     1.32847690
Ti      1.28105001     6.91821301     2.32864502    -0.36248300     0.49880551     1.15882388
Ti      1.58499498     2.22780198     2.54856002     0.18505779     0.53949760    -0.30968101
Ti      2.95040098     4.67576298     0.28485998    -2.07090121    -2.42539065    -0.77816420
Ti      3.03461002     0.21273100     0.02237801    -0.55551044    -2.06573766    -0.68017994
Ti      5.90471502     4.54721699     0.08066900    -0.53165419    -0.98714149    -2.75518360
Ti      0.09453402     9.22966501     4.41901602    -0.75338441    -0.95672867    -0.55392818
O       4.37608800     5.53807599     0.91938599     1.14275114     0.53274049     0.33229927
O       4.48884498     0.75952498     0.89202298     1.95830048     1.35031534     0.42525214
O       1.33414702     5.41477801     0.97242702     1.48651933     2.07843197     0.49269708
O       1.67772001     0.96535700     0.96252098    -1.59378939    -0.16405367    -0.88900296
O       4.43168002     8.36474400     3.61416600     0.37400772     1.06575608     0.83742301
O       4.56435799     3.78992799     3.46250999    -0.08468883     0.64348591     2.43342740
O       1.66274599     8.30674702     3.70563698    -1.41458215     0.50009183     0.01684330
O       1.50734499     3.49286899     3.95743402    -0.82732551     1.78609872    -0.38273996
O       3.12238898     1.64161499     3.42342998     0.35772517    -0.80726139    -1.18993552
O       5.71262600     6.33550398     3.37793900     1.60364957    -2.25676067    -0.21109716
O       0.07463601     1.16110501     2.87181599    -0.80083851     0.14415795     2.30488222
O       2.80706703     7.92809498     1.24322898     0.92404351    -2.20388540     2.07065978
O       2.84276299     3.29198098     1.53949002     1.52225947     0.04337530    -0.95442290
O       5.88800598     7.82781002     1.55849802     0.33239543     1.64213977    -3.16990424
O       0.05815801     3.32563602     1.51011402     0.05740710    -0.64561530    -0.57118595
