# total energy = -19960.47374689 eV

CRYSTAL
PRIMVEC
        5.93400000     0.00000000     0.00000000
        0.00000000     9.29699974     0.00000000
        0.00000000     0.00000000     4.64899994
PRIMCOORD
24 1
Ti      4.46322402     6.86025900     2.34885202    -0.58581990     1.63119407     0.76717659
Ti      4.43954900     2.43758801     2.36340699     0.44921251    -2.61411637    -0.02394546
Ti      1.46987199     6.93390201     2.18686600     0.88534248     1.34023044     0.98916417
Ti      1.48833800     2.45357498     2.31998302    -0.27444402    -1.62603335     1.29494713
Ti      2.98005099     4.64931798     0.01317403    -0.19538077    -0.38921168    -0.53344985
Ti      2.92131698     9.20330701     4.64063101     1.29187774     0.54906674    -0.92190280
Ti      5.91576900     4.68339102     0.01364399     0.08048867    -0.63964982    -0.17788878
Ti      0.03137598     9.27848098     0.09610600    -1.59367832     0.85491629    -1.05639598
O       4.37753699     5.59115400     0.87774800     0.67849895    -0.45969362    -0.94839340
O       4.45194799     0.92292698     0.97550900     0.40009542    -0.55651574    -0.99577962
O       1.44532902     5.53712299     0.90221901     0.16688960     0.32120135    -0.38234889
O       1.55166898     0.88436298     0.81801902    -0.44922588     0.30064203     0.69166917
O       4.51805699     8.27939099     3.71253899    -0.34176607     0.82668248     0.37082906
O       4.41370498     3.62759101     3.78649601     0.04052240     1.59313376     1.33967328
O       1.47020998     8.33212202     3.62813501     0.27053337     0.06455657     0.75954504
O       1.43827403     3.73416302     3.80763902     0.44346558     0.32832948    -0.12585632
O       3.01087599     5.93726799     3.03481798    -1.04874668    -0.09434049     1.34059348
O       2.92614403     1.42146598     3.22041298     0.31258095     0.58693370    -0.63884455
O       5.85495500     5.99443898     3.28120698     1.02697175     0.23234297    -0.95238941
O       0.04388102     1.54660899     3.28056001     0.18943355    -0.27992408    -0.69721710
O       3.01489398     7.86995999     1.38133900    -1.02669484    -0.48370902     0.16348725
O       3.04595399     3.44140000     1.52190901    -0.78530570    -0.60131929    -0.45251612
O       5.91686498     7.86907299     1.37229102     0.69190417    -0.76359710     0.37170761
O       0.05790998     3.34472799     1.45801001    -0.62675522    -0.12111957    -0.18186448
