# total energy = -19066.59037515 eV

CRYSTAL
PRIMVEC
        7.60600008     0.00000000     0.00000000
        0.00000000     7.60600008     0.00000000
       -1.89786986    -1.89786986     4.85670466
PRIMCOORD
22 1
Ti      3.77898000     6.69242001     1.57118700     1.14791700    -1.27807194    -2.76103235
Ti      3.63216199     2.75913500     1.44155403     1.66075225     0.94820083    -0.84707982
Ti      0.07008799     6.54265200     1.07496601    -0.07907559    -1.79497880    -2.26968921
Ti      0.35667298     2.47510398     0.91236302    -1.27948091     0.43241677    -0.88709006
Ti      5.78537824     2.53443025     3.57759879     0.66953300     5.57785303     2.13723724
Ti     -1.03996078     0.51669422     2.88325580     2.46375795    -3.77005033    -2.09117025
Ti      1.64036221     2.70940525     3.93154683    -1.08981159     1.95074220     1.83471804
Ti      1.42755321    -0.69183178     3.92475679     0.24726437    -0.57079566     2.64466880
O       3.79619498     4.66324698     1.22911502    -1.29115167     0.63636652    -1.99228070
O       4.16533099     0.80779802     0.93389598    -1.13350982     1.53579582     0.78170024
O       0.40216302     4.33991402     0.68354201     0.54310718    -0.04148991     0.36716729
O       7.10671801     0.78678899     1.00555801    -0.40849445    -0.18831281     1.47446650
O       5.80299720     4.30282224     4.12264580    -0.87834753     2.71144706     2.12480286
O       4.99453120     0.91081623     3.74938682    -0.84176637    -1.78996283     1.89058068
O       1.48788820     4.67437124     4.63220582    -0.37090337    -0.03996370    -0.41167953
O       2.46468622     1.02585820     4.18432083    -2.79126339    -1.93600206     0.50879528
O       3.04449722     3.27669421     3.10445580     0.23257436    -0.35974169    -0.12964921
O       0.05582423     3.11339525     2.74861580     0.97826115    -3.28857869     1.64793504
O       5.87219099     6.53016501     2.03539499     0.06296737    -0.33210823    -0.38344907
O       5.27409200     2.94140100     1.90723397     1.26309938    -0.71640422    -1.17607650
O       1.92452997     6.63949498     2.21978098    -0.32688838    -0.39628222    -1.49265398
O       1.60246799     1.23963798     0.01170101     1.22145932     2.70992008    -0.97022156
