# total energy = -19959.96734812 eV

CRYSTAL
PRIMVEC
        7.60600008     0.00000000     0.00000000
        0.00000000     7.60600008     0.00000000
       -1.89786986    -1.89786986     4.85670466
PRIMCOORD
24 1
Ti      3.80253400     6.73096698     1.26644202     1.06235605     0.91231747     0.09525864
Ti      3.87748100     2.94825998     1.17330302    -1.25887994    -0.79092613     0.32165669
Ti      0.10459199     6.49725701     1.17227498    -1.63720582     2.29412241     0.76975335
Ti      0.01511399     2.83308403     1.29689300     1.68506821    -1.47534762    -2.62145919
Ti      5.73686121     2.63742624     3.59987879    -1.18843477     0.19719289     0.33119986
Ti      5.63078922    -1.06394277     3.64669384     0.58002463    -0.29624339     0.19695223
Ti      1.90748121     2.94515525     3.60338682     1.61040181     0.75874774    -0.08727921
Ti      1.83507325    -0.79672678     3.63736481    -0.43829946    -0.55444806     1.10887375
O       3.72446400     4.88084800     0.87088499    -0.18096099    -0.75229941    -0.96624021
O       3.66129500     1.06059699     0.95314501     0.97807397     0.11496384    -1.29388192
O       0.03767599     4.68604701     0.77894198     0.54406003    -1.15359322     0.06241947
O      -0.05915598     0.81974297     0.72608299     0.43817913    -0.27117512     0.21222330
O       5.57755822     4.54397022     4.05374782     0.89788638     0.74332240    -0.47789858
O       5.52418223     0.80036921     4.11459379     1.11246970     2.43821043    -0.40943625
O       1.87297922     4.95004020     3.94604681    -0.05555230    -1.39850195     1.02798245
O       1.88216923     1.09571621     3.94963183     0.36080021    -0.38016345     2.09019632
O       3.78495822     2.85392620     3.30890682     1.18613775     0.04218719    -1.19586860
O       3.84041324    -0.73099275     3.22777479    -1.29954015    -0.81011068    -0.23166522
O       0.11329023     2.69642723     3.13150681    -2.13037316     0.38986526     1.56366145
O      -0.05093876    -0.81046078     3.13671180    -0.36240612    -0.55103466     0.81806157
O       5.65384700     6.50330598     1.65943000     0.10969127     0.13920858    -0.71655823
O       5.83806001     2.70115299     1.52196801    -2.87473068     0.49043348     1.44911593
O       1.85085702     6.89444798     1.82081298     0.86286511    -0.92052546    -2.61119406
O       1.97159198     2.81199599     1.55998199    -0.00163111     0.83379749     0.56412595
