# total energy = -19514.37749665 eV

CRYSTAL
PRIMVEC
        5.93400000     0.00000000     0.00000000
        0.00000000     9.29699974     0.00000000
        0.00000000     0.00000000     4.64899994
PRIMCOORD
23 1
Ti      4.59529602     7.34521698     2.13283801    -0.68169766    -0.92462869     0.59962365
Ti      4.29046500     2.18372099     2.52280698    -1.56271965     0.35005531     0.22379379
Ti      1.60027000     6.92727999     2.40896698    -1.16362284    -0.21899739     0.39938220
Ti      1.18187098     2.47808499     2.14097998     2.19524135    -1.04893000     0.29105310
Ti      2.94994398     4.56437201     0.07194202     1.73098967    -0.94988053     0.91902960
Ti      3.05381402     8.96868701     4.48243098    -0.15374997     1.07320277    -0.02440055
Ti      0.10618402     4.60323701     4.54919701    -1.69836236     1.27268934    -0.71606689
Ti      5.88668499     0.20953498     0.16475002     4.30949008    -0.85788154    -1.52537925
O       4.30835400     5.58582799     0.76857497     0.41146742     1.35281754     0.53127521
O       4.48149502     0.62570199     1.07122499    -1.30050431     1.50253988     1.44342196
O       1.48019402     5.45250199     0.88079802     0.17626050     0.50186255     0.54484627
O       1.46356902     1.01037500     0.96752302    -1.04875723    -0.18117182    -0.48090420
O       4.76527601     8.12806302     3.87476399    -2.00460580     1.18189131    -0.75395237
O       4.42473701     3.67898598     3.82822899    -0.04671053    -0.78835991    -1.30407429
O       1.52714199     8.41231497     3.84761900    -1.46038817    -2.01849002    -0.98056434
O       1.52456601     3.92653801     3.34486701     0.43518791     0.54960204     2.40043808
O       2.86543602     1.01132599     3.21620401     2.31206358     3.28242167    -0.57709100
O       0.20325402     6.20144999     3.33490498    -1.24603599    -1.56725688    -0.06389194
O       0.04680700     1.55091501     3.38092901    -1.16558897    -0.33187349    -0.43704528
O       2.73668698     8.12413901     1.49416700     2.65477247    -1.95973901     1.15116353
O       2.97890998     3.14300700     1.29591598    -0.10485862    -0.56978753     0.88828279
O       0.24141997     7.74720701     1.44367603    -0.22271649     1.20497905    -1.10632630
O       5.72408401     3.43727702     1.55170502    -0.36515463    -0.85506515    -1.42261376
