# total energy = -19074.83764562 eV

CRYSTAL
PRIMVEC
        5.17600016     0.00000000     0.00000000
        0.00000000     5.50899976     0.00000000
        0.00000000     0.00000000     9.26300011
PRIMCOORD
22 1
Ti      1.78437002     3.29032598     3.25137499     0.56688038     2.52398272     0.37581032
Ti      3.65578902     2.23019101     5.95126499    -2.18787642     0.16956792    -1.76847612
Ti      4.43919000     2.28144003     1.28118601    -0.47610678    -0.84810877    -1.61681054
Ti      0.75764598     3.25793398     8.14865701     0.24064583     1.32436673     0.45494787
Ti      1.83654500     0.66786302     1.26329998     0.28734248    -1.47285956    -1.21852569
Ti      3.20542399     4.88312500     7.98188601     0.72335392     1.95542495     1.78419585
Ti      0.66215103     0.24837998     5.91342898     0.31434756    -0.34745155    -0.04348740
Ti      4.43689898     4.93831702     3.44023702    -1.15697988    -0.00489307    -0.15630693
O       3.41127499     3.43856101     4.37967201     0.16013453    -0.41364180     1.34505152
O       0.90982498     2.03554898     0.21681202    -0.28541235    -0.27146643    -0.06520500
O       4.35941801     3.79165898     9.04522800    -0.66286484    -0.14923820    -0.10634292
O       3.39247402     0.87718501     0.23578201     0.92150146     0.86833462    -1.31624307
O       1.66688098     4.85301000     9.09105798    -1.11437206    -1.00094883    -0.72664313
O       4.56825199     0.90413002     4.72141902    -1.08062375     0.63085922     0.08511512
O       0.92130601     4.53324602     4.42870398    -0.63329380     0.14375300     1.90568900
O       0.08885500     3.64824798     2.31794601     0.31206262    -0.90184176    -0.00308944
O       5.13641601     2.03632798     6.89420599     1.31525217    -0.68703322     0.37637519
O       2.68398701     2.13080602     2.17387898     0.60363328    -0.17457977     0.29237850
O       2.49527299     3.39677400     7.24164303    -0.50551018    -1.57541782    -1.64952193
O       5.11874001     0.74642600     2.11424901     0.92208510    -0.10407238     0.94534870
O       2.38903600     0.63598400     6.37851101     1.23466194     0.68221599     0.72717124
O       2.59028099     4.89712100     2.47641200     0.50113879    -0.34695225     0.37856911
