# total energy = -19961.04351720 eV

CRYSTAL
PRIMVEC
        7.60600008     0.00000000     0.00000000
        0.00000000     7.60600008     0.00000000
       -1.89786986    -1.89786986     4.85670466
PRIMCOORD
24 1
Ti      3.83950999     6.62131198     1.10952298    -0.05302157     0.17735193     1.16264094
Ti      3.82676899     2.71131198     1.20782601    -0.80644249    -0.05836278     0.55268660
Ti     -0.02567499     6.66961300     1.21341502    -0.01625658     1.26636185     0.09310122
Ti     -0.06873600     2.93874897     1.31158201     0.93804754    -1.39182325    -1.31701312
Ti      5.62891122     2.96739424     3.64869481     0.30753696    -1.71813004     0.11777225
Ti      5.67662925    -0.90563479     3.66503782    -0.35732639     1.54403287     0.35430200
Ti      1.89854324     2.76877920     3.73640282     0.16444679    -0.03887278    -1.46847583
Ti      1.94267525    -0.97676680     3.61265880     0.51427353     0.08132865    -0.53990667
O       3.91016902     4.66369800     0.78073197    -0.29947012     0.72680588     0.19279476
O       4.07492201     0.85038001     0.73419200    -0.93465600     0.86913269    -0.28115795
O      -0.15362402     4.81047801     0.79077401     0.46411257     0.00702143     0.58351439
O      -0.18376701     1.04387002     0.76802198     0.68212395    -0.58822697    -0.31004276
O       5.55271123     4.85180522     4.03684183     0.57538508    -0.36799442     0.10338770
O       5.56835524     1.10461121     4.02088883     0.64593412    -1.17026555     0.86544367
O       2.07212523     4.77697125     3.96917281    -0.70261539    -1.17732452     0.31363691
O       2.05100720     0.92290920     4.10504082    -0.63350951    -0.31292111    -0.19302101
O       3.83477121     2.86327623     3.21718283    -1.65018090     0.28988350    -0.60587169
O       3.77874922    -0.85206978     3.19661080     0.09015988    -0.27666186    -0.93876771
O       0.00731424     2.82955224     3.31403582     0.47600856     0.75516259    -0.36977259
O       0.03018623    -0.88660780     3.15221680     0.60547291    -0.13815674     0.69088987
O       5.73680702     6.71725001     1.70652498    -0.70796792    -0.53473515    -0.59445830
O       5.70010001     2.66980099     1.66195598     0.02966591     1.10288231     0.30740686
O       1.94793601     6.69224602     1.42474201    -0.03162818    -0.18981665     0.63775286
O       1.86782699     2.50964200     1.55541201     0.69990776     1.14332783     0.64315758
