# total energy = -19937.33418492 eV

CRYSTAL
PRIMVEC
        5.15246143     0.00000000     0.00000000
        0.00002354     4.48672687     0.00000000
        0.00000000     0.00000000     8.46811132
PRIMCOORD
24 1
Ti      1.86753339     2.65883027     3.14160901    -0.85990449     2.34589236    -4.07667661
Ti      3.28495163     1.82789689     5.32650265     0.85990449    -2.34589236     4.07667661
Ti      4.44367491     1.82789845     1.09241298    -0.85687752    -2.34605691     4.08110302
Ti      0.70881011     2.65882886     7.37569877     0.85687752     2.34605691    -4.08110302
Ti      1.86752181     0.41546693     1.09244694    -0.85949131     2.34586048     4.07916132
Ti      3.28496321     4.07126037     7.37566481     0.85949131    -2.34586048    -4.07916132
Ti      0.70879853     0.41546518     5.32646869     0.85723697     2.34613868     4.07921429
Ti      4.44368649     4.07126207     3.14164296    -0.85723697    -2.34613868    -4.07921429
O       1.63079488     1.57985289     4.32121252    -0.17836958    -2.90147917     2.41469074
O       3.52169014     2.90687427     4.14689914     0.17836958     2.90147917    -2.41469074
O       0.94548253     1.57987096     0.08718396     0.17914039    -2.90304805     2.41610485
O       4.20700254     2.90685625     8.38092745    -0.17914039     2.90304805    -2.41610485
O       3.52167856     0.66351079     0.08715647     0.17916405     2.90229472     2.41525715
O       1.63080646     3.82321637     8.38095494    -0.17916405    -2.90229472    -2.41525715
O       4.20699091     0.66349277     4.32124001    -0.17840686     2.90234666     2.41577600
O       0.94549401     3.82323444     4.14687165     0.17840686    -2.90234666    -2.41577600
O       0.18721507     2.72908166     2.28744821     2.10610657    -0.69318510     0.71669913
O       4.96526995     1.75764550     6.18066344    -2.10610657     0.69318510    -0.71669913
O       2.76345103     1.75760360     1.94663455     2.10804801     0.69286731    -0.71547811
O       2.38903399     2.72912356     6.52147696    -2.10804801    -0.69286731     0.71547811
O       0.18720344     0.48571818     1.94660750     2.10707022    -0.69294084    -0.71569331
O       4.96528157     4.00100898     6.52150402    -2.10707022     0.69294084     0.71569331
O       2.38902236     0.48576008     6.18069045    -2.10715069    -0.69313342    -0.71641142
O       2.76346266     4.00096708     2.28742115     2.10715069     0.69313342     0.71641142
