# total energy = -19517.44032173 eV

CRYSTAL
PRIMVEC
        5.17600016     0.00000000     0.00000000
        0.00000000     5.50899976     0.00000000
        0.00000000     0.00000000     9.26300011
PRIMCOORD
23 1
Ti      1.84256597     3.11713399     3.46351500    -0.29736130     1.05155639     2.66552611
Ti      3.38402702     2.23451698     5.84463101     1.29607276    -0.66086169    -2.15454360
Ti      4.38773302     2.15618298     1.44064500     1.23841909    -0.73686456    -2.53329706
Ti      0.91694802     3.45683599     7.71814401    -0.60880274    -1.40952556     0.88971721
Ti      1.98873500     0.36772898     1.29241902     0.37988475    -0.52783431    -1.34703513
Ti      3.12663500     5.17514702     7.96004602     1.90779396    -2.76503864     0.78812646
Ti      0.75450399     0.51311598     5.97576902    -1.24399222    -0.60494789    -2.51266369
Ti      4.46863798     4.86331498     3.30606202     0.55219603     1.57132282     3.51819217
O       1.66805300     1.89708801     4.89865402     0.58219207     0.41639520    -1.40064445
O       3.53584798     3.54595902     4.44488702    -0.66514489    -0.23790992     0.29906672
O       0.05785601     2.79076001     9.19412800    -0.74016611    -0.54041780     1.28453570
O       3.47529401     0.82180200     0.02655401     0.21963348     0.98380908     2.44843005
O       1.73396399     4.54695700     9.12681999     0.27426302     1.22908778     0.99155042
O       4.30819202     0.76595999     4.83052198    -0.53115360    -0.20163473    -0.62289574
O       0.86467198     4.64242201     4.45053498     0.72162356     0.01637999     0.67367736
O       0.11855200     3.35683499     2.58826102     0.22750363    -0.33398437    -1.15339551
O       5.13999801     2.04623698     6.72525498    -0.36202123     0.49621590     0.54831855
O       2.66477100     2.05815702     2.16789399    -0.45072869    -0.06665073    -0.53278188
O       2.77891400     3.32810601     7.17300101    -0.90193432     1.03290611     0.64219882
O       0.26859503     0.76314001     2.05016401    -0.30951903    -0.92827914    -0.00088189
O       4.97036998     4.76977899     7.21974599    -0.57176419     1.33495557    -0.43470146
O       2.42963701     0.85192399     6.95507301    -1.31159914     1.01110495    -1.73023171
O       2.66660597     4.76441001     2.50848199     0.59460536    -0.12978419    -0.32626720
