# total energy = -4987.93710597 eV

CRYSTAL
PRIMVEC
        2.90020403     0.00000000     0.00000000
        1.11856875     4.40436380     0.00000000
       -0.00000719    -0.00005955     4.58066692
PRIMCOORD
6 1
Ti      2.00938268     2.20215204     2.29033351     0.00000000     0.00000000     0.00000000
Ti      0.00000000     0.00000000     0.00000000     0.00000000     0.00000000     0.00000000
O       1.66809310     0.85833398     0.89270454    -2.58535600     1.20488187     1.28073895
O       2.35067221     3.54597011     3.68796248     2.58535600    -1.20488187    -1.28073895
O       0.34128652     1.34379396     3.18303897     2.58501507    -1.20418355     1.28006995
O       0.77727492     3.06051020     1.39762805    -2.58501507     1.20418355    -1.28006995
