# total energy = -19960.00767758 eV

CRYSTAL
PRIMVEC
        5.93400000     0.00000000     0.00000000
        0.00000000     9.29699974     0.00000000
        0.00000000     0.00000000     4.64899994
PRIMCOORD
24 1
Ti      4.40804999     6.79773200     2.32380400    -0.69700319     2.68648730     0.95568531
Ti      4.46064999     2.43284102     2.42283000     0.43805161    -2.66769278    -1.34158130
Ti      1.44760601     7.01869901     2.23404601     1.18172342     1.70968988     0.13402420
Ti      1.48211102     2.32677797     2.34855801    -0.48534398    -1.83701584    -0.47917256
Ti      2.97851098     4.63289200     0.00660800    -2.04134200    -1.45331403    -0.33810045
Ti      2.98581098     0.00826898     4.55982702     0.31537832     1.35960320     0.93711988
Ti      5.90835401     4.74150002     0.02667498     2.30983906    -2.07883306    -0.40326431
Ti      0.02211400     9.18397299     0.02351500    -0.72576176     2.07351011     0.21039294
O       4.47899101     5.55962297     0.84627698    -0.64167508     0.36016926     0.41460057
O       4.42289499     0.88390799     0.83376998     0.52216014     0.36464967     0.19348895
O       1.47971501     5.64128598     0.80076498     0.16083568    -0.72144770    -0.03863547
O       1.57707399     0.92324401     0.85517203    -1.08973985    -0.00138660     0.03473947
O       4.39593098     8.33129503     3.78835601     1.19715364    -1.17550237    -0.97473308
O       4.54253001     3.70247499     3.74628102    -0.65836875     1.56804878     1.63040731
O       1.44392500     8.40634898     3.75895498     0.07143273    -1.25002197    -0.84744440
O       1.45251101     3.64757301     3.72106499     0.56710921     2.26430300     2.33091517
O       2.96094801     6.01644799     3.29016998     0.52192025     0.02506621    -0.80815742
O       2.98928900     1.42207300     3.20845501     0.48580858    -0.19308812     0.03313356
O       0.02349902     6.12704699     3.11539501    -0.84186896    -1.82270790     1.44553901
O       0.05963600     1.40926702     3.13295099    -1.19458228    -0.71916687     0.96595559
O       2.89415298     7.90710199     1.38530698     0.76290007    -1.50480013     1.10524927
O       2.91217602     3.29421199     1.62206797     1.61844088     1.94021687    -2.57744780
O       0.03916499     7.97675802     1.54418700    -0.85700171    -0.44951127    -0.80984843
O       0.04650801     3.26503602     1.51977500    -0.92006549     1.52274438    -1.77286576
