# total energy = -19073.14700308 eV

CRYSTAL
PRIMVEC
        5.93400000     0.00000000     0.00000000
        0.00000000     9.29699974     0.00000000
        0.00000000     0.00000000     4.64899994
PRIMCOORD
22 1
Ti      4.40659300     6.79451598     2.40081897     0.17961502     0.48412656    -0.48207765
Ti      4.40030198     2.59709097     2.08493402     1.07328607    -1.67848387    -0.26974842
Ti      1.50065201     7.25280401     2.59075799    -0.11398193    -0.78295777    -0.92219797
Ti      1.59135500     2.28141097     2.21325400     0.06091023     0.56156179     0.23314284
Ti      2.99170798     4.55109099     4.42543298    -0.37845624     0.81836033     1.43950463
Ti      3.04470201     0.01822301     0.04275900     2.51006636    -0.74924596    -0.27786642
Ti      5.80764100     4.60090800     4.42102700    -0.16755294    -0.23970584     0.13642587
Ti      0.12817001     9.20466800     0.39556899    -2.75977893    -0.09141329     0.77953768
O       4.40101600     5.45303699     0.88098900    -0.23796340    -0.42669890     0.97497502
O       4.44416702     0.78009903     1.10444700     0.22248510     0.33920448    -0.65212276
O       1.64791400     0.50043901     1.40460100    -1.05214903     1.27023599    -1.29527957
O       4.45308302     8.20886902     3.91422998    -0.99844046     2.63318265    -0.04072706
O       4.27903398     4.07783502     3.27494200     1.71354345    -0.89505045    -0.60767377
O       1.36821302     8.55398303     3.77714402     0.70275346     1.57781178     0.57334516
O       1.47735800     3.85815000     3.50829700    -0.61468980    -0.00413176    -0.44906982
O       2.91750399     6.24478601     3.37419502    -1.51170303    -1.24546263     0.70227652
O       2.96752002     1.63669099     3.27355302     0.59513784    -0.81513102     0.87869283
O       5.88208300     6.33911599     3.65538002     1.54467744    -1.67776293    -1.49227551
O       2.89307701     7.66223400     1.37271600     0.07641527     0.05343988     0.20109659
O       2.99044398     2.93934700     0.99882502    -1.54922701     1.35369352    -0.33796187
O       5.83485902     7.82370498     1.52261699     0.67192335    -0.87051235     0.31572156
O       0.01571402     2.98976902     1.03263802     0.03312893     0.38493979     0.59228212
