# total energy = -19515.95266192 eV

CRYSTAL
PRIMVEC
        5.17600016     0.00000000     0.00000000
        0.00000000     5.50899976     0.00000000
        0.00000000     0.00000000     9.26300011
PRIMCOORD
23 1
Ti      2.03000500     3.19454998     3.40367802    -0.58853679    -0.82207763     1.22849874
Ti      3.23899102     2.25889099     5.89814697     0.23115692     0.76533105    -1.35459006
Ti      4.25296798     2.21772698     1.49336101     0.60667156    -0.60567268     0.40159052
Ti      0.86202101     3.34652503     7.89064199    -0.77806059     1.42791255    -0.80021270
Ti      1.94533003     5.49539901     1.45276401    -0.96491558     2.07917296    -1.71969970
Ti      3.38524598     5.34420201     7.91636302    -0.47323511    -0.31647386     0.51547681
Ti      0.62255402     0.54782101     5.74609202     0.07662970     0.90481910    -1.37664473
Ti      4.61645300     4.83013801     3.39503698     0.59049340     0.42631966     1.65696964
O       1.55117902     2.06832400     4.81454400     0.78777499    -0.75374977     0.51626794
O       3.47888998     3.61760798     4.48402301     1.03584283     0.00721529     0.85618153
O       4.90325802     3.22027402     0.08346898     0.72082061     0.05153624    -0.44029952
O       3.38271398     1.12163299     0.06074098     0.41450775    -0.97923431    -0.18007473
O       1.73846099     4.90561699     8.76804401    -0.13771734    -0.39108191     3.50279203
O       4.18255798     0.83534201     4.83675500     0.48635931    -1.21724219    -0.85746014
O       1.15109302     4.81972703     4.45663200    -0.70509162    -0.03372080    -0.47287310
O       0.27397501     3.13786398     2.83808703    -1.66386483    -0.23969915    -2.03353715
O       4.98204199     2.24254597     6.67413202     0.37332869    -0.56577377     1.50617593
O       2.78507998     1.40066201     2.37714200    -1.77503912     1.40215883     0.77027245
O       2.61345001     3.68234900     7.01848797    -0.09703784    -1.76634313     0.33354882
O       5.17518602     0.58302199     2.15603100     1.90136183     0.05050086    -1.63851040
O       5.10605700     4.78099702     7.04650802    -0.65937816     0.57465925     0.61920929
O       2.33083200     0.73180700     6.77682500     0.25910327     1.42968250    -0.20187667
O       3.12787999     4.27365299     2.12257302     0.35882612    -1.42823882    -0.83120479
