# total energy = -39037.24054566 eV

CRYSTAL
PRIMVEC
        7.60600008     0.00000000     0.00000000
        0.00000000     7.60600008     0.00000000
       -3.79573973    -3.79573973     9.71340985
PRIMCOORD
46 1
Ti      1.92699144     4.82847443     6.07760564     0.18209254     0.84230528    -0.25260867
Ti      3.76331101     6.80292000     1.31450201     1.39994871     1.50554935    -1.23722507
Ti      1.91804147     0.95692345     6.09628364    -0.18233499    -1.01888382    -0.84229911
Ti      3.78808000     2.92284000     1.25949398     2.55263896    -1.26906022    -1.49720715
Ti     -1.86772057     4.60311943     6.05735662    -0.54336686     0.51413880     0.76802762
Ti      0.04585099     6.83463502     1.23731198    -0.45257834    -1.46197814     0.72472997
Ti     -2.00550854     0.81473347     6.00731963     0.38949245    -0.46538347     0.63820075
Ti      0.04991300     2.95509701     1.21504600    -1.99302452     1.27867898    -0.64831779
Ti      3.76450144     0.96807347     8.52049664     0.69007355    -0.34740656     0.21190757
Ti      5.73980100     2.75602597     3.65028197    -0.19288912    -0.37329321    -0.84886982
Ti      3.72809447    -2.82526257     8.55726763     0.70757197     0.54480385    -1.31928829
Ti      5.66015099    -1.04524599     3.56898601     0.78718003     0.14495679     1.08635140
Ti     -0.04340153     0.96514744     8.33405061    -0.38650483    -0.79055409     0.36831915
Ti      1.93373501     2.67785401     3.36445202     0.25960850     0.01694846     2.95026278
Ti      0.01826344    -2.81337254     8.52278364    -0.99706749     0.67916615     1.28235412
Ti      1.92546101    -1.06585802     3.67165200    -0.40570840     0.99207852     0.87961071
O       2.01850344    -0.90436657     5.79435060    -0.31406782    -1.43661239    -1.32892941
O       3.88374302     1.06541103     0.98488999    -0.14467371    -0.97022748    -1.97389885
O      -1.99894156     2.66710747     5.68373864     0.58991130     1.99792376    -0.53425512
O       0.10977300     4.83814800     0.90088601    -0.07879663    -0.43726793    -1.01359121
O      -2.05144255    -1.03398255     5.68992261     0.41075034    -0.83096028    -0.69636761
O      -0.06834001     1.08986902     0.85433101    -0.04117675    -1.38605857    -0.07009498
O       3.84420342     2.91219147     9.01553661    -0.20858494    -0.16658903    -0.44029875
O       5.63076699     4.60164699     4.07307200     0.26821038     1.21341870     0.34612769
O       3.81126944    -0.98081855     8.85082564    -0.15082354     1.60560490     0.77967138
O       5.68240998     0.87094198     3.98971801     0.66915684    -0.08536657     0.34165269
O      -0.02763454     2.68895144     9.03984262     0.05799100     1.03791359     0.24302462
O       1.85457999     4.70947400     4.03310398     0.56075447    -0.95236653     0.11229606
O       0.00177243    -0.85133353     8.87624160    -0.02380045    -0.07830272     0.58923896
O       1.90308602     0.90125098     4.10546199    -0.25179928     1.52369183    -0.36858037
O       1.93094948     0.86584447     8.01275165    -0.17463556     0.84027848     1.21022719
O       3.89348702     2.71348801     3.16323099    -1.71102299     0.46344434     0.79143753
O       1.83736146    -2.70521654     8.11402564     0.88911609    -0.70342066     0.26490497
O       3.83953200    -0.66528799     3.23549200    -1.08269014    -1.67193681     0.76347188
O      -1.95173254     0.83839346     7.99090065    -0.15111973     0.39820952     0.54689467
O       0.07968198     2.77306400     3.15624500    -1.07313721    -0.01190755     0.18172487
O      -1.89030655    -2.69228853     8.02943364    -0.01671938    -0.88014987     0.14274539
O       0.00144698    -0.98713502     3.18712102     0.51635510     0.05373145     0.53631406
O       3.72961644     4.58029443     6.51340760     0.39015065    -0.46338470     0.16253106
O       5.67278599     6.63764001     1.68898498     0.58502337    -0.35523711    -1.00919873
O       3.76532844     0.99502347     6.51336463     0.01665381     0.49509489    -0.31581643
O       5.64271999     3.12879700     1.61056901     1.24715905     0.01633834    -0.00434208
O       0.05968543     4.62455545     6.50231160    -0.86838707    -0.48433739    -0.36428586
O       1.98536800     6.78891898     1.68187299    -1.77520649    -0.46624993    -0.06575470
O      -0.00370054     0.91137742     6.47964662    -0.01176486     0.43980690    -1.14156123
O       1.92101100     2.85184299     1.47929098     0.06204203     0.50285269     0.05076311
