# total energy = -39034.81789044 eV

CRYSTAL
PRIMVEC
        7.60600008     0.00000000     0.00000000
        0.00000000     7.60600008     0.00000000
       -3.79573973    -3.79573973     9.71340985
PRIMCOORD
46 1
Ti      1.76972044     4.75340545     6.04849861    -0.53369179    -0.90331192     1.13869882
Ti      3.90452598     6.69757801     1.17401201    -1.14453085     0.29060676     0.59332881
Ti      1.94483943     0.61007946     6.09116162     0.60783344     0.39458503     2.85544869
Ti      4.02018597     2.69712802     1.23372802    -1.24062536    -0.18729722    -1.84360301
Ti     -2.10729356     4.64688546     6.06376061     0.88706846     1.76366018    -0.10489385
Ti     -0.08844198     6.66847501     1.20127501     0.60912568    -0.09100037    -1.09472111
Ti     -1.82150657     0.95743542     6.03317263    -0.61622989    -1.92044868     1.62360365
Ti      0.07926901     2.84456601     1.16122502     0.67459704     0.31197340     0.54661699
Ti      3.89511943     1.08156146     8.45270464    -2.55085950    -0.25369521     0.29621459
Ti      5.75574098     2.86951798     3.70221501     1.01480965     0.22676238    -0.65745858
Ti      3.80493043    -2.73531953     8.51912363    -1.92241403    -0.77103453    -0.99069732
Ti      5.67371502    -0.88229898     3.72676100    -1.32268369    -1.31042132     0.50214075
Ti      0.01157745     1.03271846     8.43931365     1.29104522    -2.02170236    -0.50123495
Ti      1.98780301     2.86010302     3.58959900    -0.80698268     1.16693186    -0.19919732
Ti     -0.13101354    -2.94551657     8.43617060     1.69461575     0.27207835     0.07596224
Ti      1.77347400    -0.74400898     3.54044298     0.67336471    -1.80221209    -0.54169101
O       1.86650145    -1.12231954     5.63266462    -0.20905879     2.65313673    -0.37709690
O       3.90441803     0.89237102     0.61359399    -0.09754820     0.90264626     1.17482694
O      -2.19094156     2.77448145     5.74678164     0.72110060     1.16968037    -0.91534495
O       0.04285600     4.73836899     0.92847800     0.13460604     1.36704603    -0.99870734
O      -2.02002657    -1.04731454     5.82265963     0.32943634     1.28812728    -1.00802425
O      -0.09759399     1.01109098     0.64831299     0.17721335    -1.58932775     2.03782421
O       3.40032944     2.92041245     8.87168364     1.60327162    -1.46086202     0.79850652
O       5.84795398     4.82464398     4.06959801    -0.55231430    -1.89447333     0.35474578
O       3.93712245    -0.96770654     8.93912860    -0.02853926     2.26207925    -0.89242098
O       5.89379798     0.94919000     4.21629202    -0.50157202     0.86520250    -1.37296060
O       0.21292447     2.77843446     8.85369563    -0.82328091     0.94671422     0.52550360
O       1.95137302     4.83163198     4.18078503     0.01265240    -2.43662534    -2.71318024
O      -0.11814353    -0.70864856     9.04713362     0.02939903    -1.04556674     0.85547576
O       1.81013101     1.01938001     4.29969200     0.64092895     0.86061411    -1.65438003
O       1.97774144     0.78569545     8.21702465    -0.05634909     0.09873888    -0.94340546
O       3.95877501     2.74814399     3.12896899    -0.43981178     0.32406325     1.76713374
O       1.68711947    -2.85975355     7.93619462     1.42611098     0.68473259     1.67563689
O       3.79597098    -0.88162099     3.13424801    -0.35835972     0.24497737     0.58152282
O      -1.90912255     1.05104344     8.01678260     0.31112391     0.54488561     0.36240947
O       0.11642900     2.74304901     3.08845401    -1.27715175     0.35454317     2.07985868
O      -2.00446156    -2.92168957     8.27426464     0.47915970    -0.50242948    -1.38892356
O      -0.15639902    -0.68193702     3.33282299     2.88180302    -0.67769188    -1.36707457
O       3.69531644     4.86956944     6.50171162     0.49829026    -1.05745938    -0.01780798
O       5.70566399     6.64100901     1.63901599    -0.08214883    -0.31496231     0.20834351
O       3.74894845     0.92039143     6.38798164     0.86572367     0.27002738     0.87437415
O       5.80851102     2.65588998     1.59343001    -0.21657027     0.85280644     0.41251694
O      -0.11390657     4.61833444     6.47639663    -1.36496678    -0.42709253    -0.79244643
O       1.88726298     6.84918898     1.52034503    -0.70582053    -0.52044778     1.11878665
O       0.11853242     0.78135646     6.50412763    -1.79746506     0.99804682    -0.29809175
O       1.96968700     2.79312199     1.75313999     1.08569576     0.07339602    -1.78611852
