# total energy = -19073.17620322 eV

CRYSTAL
PRIMVEC
        5.93400000     0.00000000     0.00000000
        0.00000000     9.29699974     0.00000000
        0.00000000     0.00000000     4.64899994
PRIMCOORD
22 1
Ti      4.35276901     6.86195602     2.28161000     1.20771008    -0.98187201     1.10496927
Ti      4.31664901     2.37270299     2.22139502     2.98473795     0.71434297    -0.53580447
Ti      1.54408598     7.07955900     2.35519400    -1.30036213    -0.74812059     1.14273031
Ti      1.68438002     2.36996498     2.20785502    -2.87301576     0.86210895    -0.58076100
Ti      3.06246098     4.69462698     4.55021398    -1.57248239     0.07956487    -0.79003447
Ti      3.01102601     0.06581002     0.05646999    -1.14950980    -0.00339103    -0.48892322
Ti      5.86591701     4.64055502     4.64695700     1.40697785    -1.08243715    -1.32855557
Ti      5.88529802     8.98860397     0.15681501    -0.17419590     0.85694412    -0.52622479
O       4.48591302     5.61980800     0.72897601     0.28353159     1.38839571     2.58922397
O       4.42756001     0.79464198     0.92851901     0.97169815     1.90126079     0.67288906
O       1.53021000     0.81069500     1.01075199    -1.19508005     0.70271849     0.24195170
O       4.28792998     8.21868097     4.10321097     1.65302583    -0.29152850    -2.22378009
O       4.41831200     3.86377002     3.58493700     0.63085305    -1.10768410    -0.21668031
O       1.32363201     8.35061100     3.67520702     0.31981990     1.46381519     1.28002316
O       1.61090699     4.03770100     3.65260803    -1.05572723    -1.48364329    -0.24695686
O       2.92821798     6.30895500     3.43980601    -0.29558621    -1.51498788    -0.31431336
O       3.02900698     1.53767399     3.22569502    -0.56202459    -1.72564101     1.96031674
O       0.02221698     6.03067201     3.23477898    -0.02380328     0.18787958    -0.40266961
O       3.01766100     7.95259700     1.62534501    -0.46045878     0.71899358    -1.33181856
O       3.01945300     3.05578801     1.18312402    -0.06187825     1.70634487    -0.98146012
O       5.83146403     7.99600298     1.58888300     0.47840791    -1.51719851     0.89367594
O       5.88643999     3.16941501     1.40606899     0.78736207    -0.12586429     0.08220231
