# total energy = -19074.71463310 eV

CRYSTAL
PRIMVEC
        5.17600016     0.00000000     0.00000000
        0.00000000     5.50899976     0.00000000
        0.00000000     0.00000000     9.26300011
PRIMCOORD
22 1
Ti      2.02262398     3.46165500     3.30798902    -0.79082663     0.45076803     1.05852228
Ti      3.47882399     2.31108898     6.01119802    -0.52477726     0.51405319    -0.68162258
Ti      4.29476203     2.35663299     1.24065998     1.35859584    -1.06421085    -0.41324431
Ti      0.65332001     3.07710602     8.08667300     1.41620143     1.16629911     2.02203120
Ti      1.86342402     0.44726601     1.25749602    -1.34601826     0.43382008    -1.28760226
Ti      3.17262399     5.08909301     7.98260500    -0.32523284    -0.28960531     0.53989587
Ti      0.52459600     0.25938702     5.96396599     0.95239507     0.46537576    -1.08844813
Ti      4.53202198     4.88917799     3.34057998     0.90197135     1.28419091     1.33996639
O       3.61975400     3.56413800     4.54509298    -0.99697930    -1.31107309     0.91701694
O       1.00733700     1.95276401     0.34146702    -1.40525881     0.86155282    -1.69306409
O       4.23572198     3.57303802     8.98702798     0.02931316    -0.08911061     0.65177592
O       3.40179198     0.88570201     0.12775699     0.75784759     0.28482357    -0.32359634
O       1.61535398     4.72116099     9.13295501    -0.68713709     0.18306955     0.57806571
O       4.31782299     0.70992203     4.82479702    -0.45332319     0.56928436     0.25106035
O       1.18155702     4.86004901     4.30273800    -0.78343831    -0.25169952     1.61414688
O       0.21378898     3.46161198     2.46217702     0.23451709    -1.13433411    -0.45695925
O       0.12548502     2.34856399     6.48483002    -0.31636331    -1.79284555    -0.32498936
O       2.70925401     2.06711498     2.29855499     0.60009287    -1.00761339    -0.16408401
O       2.35221500     3.47321202     7.25827602     0.72398769    -0.95144788    -1.82881890
O       0.03253202     0.66896402     2.15438002     0.52611938     0.31223154    -0.34016813
O       2.33559999     0.66074299     6.60974602     0.11921310     0.66270183     0.35861734
O       2.93734602     4.69731499     2.30590400     0.00910042     0.70376982    -0.72850178
