# total energy = -19960.52275666 eV

CRYSTAL
PRIMVEC
        7.60600008     0.00000000     0.00000000
        0.00000000     7.60600008     0.00000000
       -1.89786986    -1.89786986     4.85670466
PRIMCOORD
24 1
Ti      3.93588799     6.65819399     1.17250999    -1.45464869    -1.30012919    -0.09836941
Ti      3.80723399     2.72063000     1.17669700    -0.64372502     1.69636384     0.44742457
Ti     -0.01897000     6.63499301     1.15557198     1.25586866     1.46609396     0.19407337
Ti     -0.09954401     2.93414799     1.30343299     1.04614833    -1.33276010     0.57166546
Ti      5.64664025     2.78124222     3.68399379     1.06711285     1.23542247     0.08410030
Ti      5.68928320    -0.89621575     3.63208082     1.03163933    -1.26398512     0.94421022
Ti      2.00438023     2.81237224     3.68418282    -1.20141705     0.24012236    -1.11355445
Ti      2.00348825    -0.95121177     3.66609982    -0.85654688    -0.17670607    -2.88733578
O       3.88284903     4.73689099     0.68018602    -0.01249659    -1.06610344     2.12510060
O       3.88492800     0.92330799     0.72794898     0.05410246    -0.09942357     0.11203689
O      -0.25423501     4.75661999     0.87945301     0.69196382    -0.45903053    -0.93815167
O      -0.08689302     0.97960398     0.84606198     0.27061436     0.33093041    -1.02989046
O       5.42994020     4.79247022     4.00375280     0.54407006     0.02259435     0.55590536
O       5.61390920     0.95986922     3.98023579     0.54980773     0.37873495     1.40063288
O       2.02160320     4.64342220     4.06205284     0.18067971     2.49053497    -0.75598020
O       1.80338024     0.86901922     4.07171180     0.09186066     0.27809731    -0.30518826
O       3.81093722     2.79965225     3.06062881    -0.96475180    -0.25983038     1.41619834
O       3.91011224    -0.61202080     3.08846883    -2.04711747    -1.04083874     0.74831240
O      -0.10815579     2.97760821     3.39326783     0.40446784    -0.27111007    -0.76195210
O      -0.02031776    -1.00615476     3.13128583     0.58276234    -0.02521842     0.77809581
O       5.73119600     6.67390299     1.55047998    -0.41606995     0.01591745     0.44219545
O       5.69650001     2.77534798     1.72732900    -0.76558816    -0.02639084    -1.08880063
O       1.93728002     6.76308798     1.57065999     0.05404307    -0.78823187     0.48162077
O       1.79526901     2.83618601     1.75228098     0.53722089    -0.04505397    -1.32234996
