# total energy = -19924.91709711 eV

CRYSTAL
PRIMVEC
        7.47249298     0.00000000     0.00000000
        0.00002820     4.77179516     0.00000000
        0.00000000     0.00000000    11.41258161
PRIMCOORD
24 1
Ti      2.70843579     2.82776137     4.23398640     0.50697314    -0.20325298     1.70494645
Ti      4.76408490     1.94403372     7.17859534    -0.50697314     0.20325298    -1.70494645
Ti      6.44455372     1.94403533     1.47225887     0.50704847     0.20289045    -1.70460295
Ti      1.02796703     2.82775995     9.94032292    -0.50704847    -0.20289045     1.70460295
Ti      2.70842194     0.44186385     1.47230465     0.50666281    -0.20242226    -1.70455821
Ti      4.76409875     4.32993136     9.94027721    -0.50666281     0.20242226     1.70455821
Ti      1.02795312     0.44186213     7.17854956    -0.50756758    -0.20270533    -1.70558665
Ti      6.44456758     4.32993309     4.23403212     0.50756758     0.20270533     1.70558665
O       2.36510100     1.68023014     5.82375306     0.99029443     1.14374975    -1.44096759
O       5.10741975     3.09156489     5.58882867    -0.99029443    -1.14374975     1.44096759
O       1.37120878     1.68024941     0.11749893    -0.98956604     1.14427271    -1.44207908
O       6.10131204     3.09154568    11.29508244     0.98956604    -1.14427271     1.44207908
O       5.10740590     0.70566725     0.11746189    -0.99012088    -1.14386699    -1.44091025
O       2.36511485     4.06612778    11.29511948     0.99012088     1.14386699     1.44091025
O       6.10129812     0.70564804     5.82379004     0.98911687    -1.14397087    -1.44189473
O       1.37122251     4.06614705     5.58879163    -0.98911687     1.14397087     1.44189473
O       0.27151000     2.90247632     3.08282301    -2.00556380     0.69542478     0.52985828
O       7.20101075     1.86931872     8.32975866     2.00556380    -0.69542478    -0.52985828
O       4.00776510     1.86927435     2.62350410    -2.00602454    -0.69601717    -0.53204937
O       3.46475560     2.90252074     8.78907739     2.00602454     0.69601717     0.53204937
O       0.27149609     0.51657868     2.62346767    -2.00530720     0.69627325    -0.53234222
O       7.20102460     4.25521635     8.78911382     2.00530720    -0.69627325     0.53234222
O       3.46474174     0.51662310     8.32979503     2.00614307     0.69557622    -0.52998246
O       4.00777895     4.25517193     3.08278659    -2.00614307    -0.69557622     0.52998246
