# total energy = -19913.96511713 eV

CRYSTAL
PRIMVEC
        6.63790264     0.00000000     0.00000000
        0.00002222     3.40153940     0.00000000
        0.00000000     0.00000000    10.02881608
PRIMCOORD
24 1
Ti      2.40593372     2.01574916     3.72061924    -0.83906749     1.47848771    -1.58286477
Ti      4.23199129     1.38579039     6.30819694     0.83906749    -1.47848771     1.58286477
Ti      5.72477141     1.38579160     1.29374879    -0.83741478    -1.47983394     1.58620103
Ti      0.91315364     2.01574811     8.73506755     0.83741478     1.47983394    -1.58620103
Ti      2.40592266     0.31497951     1.29378900    -0.83906749     1.47848771     1.58286477
Ti      4.23200240     3.08656014     8.73502733     0.83906749    -1.47848771    -1.58286477
Ti      0.91314253     0.31497821     6.30815673     0.83741478     1.47983394     1.58620103
Ti      5.72478247     3.08656145     3.72065946    -0.83741478    -1.47983394    -1.58620103
O       2.10094600     1.19773990     5.11762809     5.23711360    -1.84922987     3.75102365
O       4.53697906     2.20379966     4.91118809    -5.23711360     1.84922987    -3.75102365
O       1.21805995     1.19775359     0.10325227    -5.23830993    -1.84931574     3.75007619
O       5.41986516     2.20378597     9.92556361     5.23830993     1.84931574    -3.75007619
O       4.53696795     0.50302995     0.10321975    -5.23711360     1.84922987     3.75102365
O       2.10095706     2.89850960     9.92559618     5.23711360    -1.84922987    -3.75102365
O       5.41985410     0.50301627     5.11766062     5.23830993     1.84931574     3.75007619
O       1.21807086     2.89852334     4.91115557    -5.23830993    -1.84931574    -3.75007619
O       0.24118397     2.06900912     2.70903341     2.36336327    -0.72691438     1.16861053
O       6.39674104     1.33253048     7.31978277    -2.36336327     0.72691438    -1.16861053
O       3.56014359     1.33249873     2.30540655     2.36507974     0.72710053    -1.16860744
O       3.07778142     2.06904087     7.72340948    -2.36507974    -0.72710053     1.16860744
O       0.24117291     0.36823937     2.30537453     2.36336327    -0.72691438    -1.16861053
O       6.39675215     3.03330019     7.72344150    -2.36336327     0.72691438     1.16861053
O       3.07777036     0.36827112     7.31981474    -2.36507974    -0.72710053    -1.16860744
O       3.56015470     3.03326843     2.70900139     2.36507974     0.72710053     1.16860744
