# total energy = -19076.34579929 eV

CRYSTAL
PRIMVEC
        7.60600008     0.00000000     0.00000000
        0.00000000     7.60600008     0.00000000
       -1.89786986    -1.89786986     4.85670466
PRIMCOORD
22 1
Ti      3.76395999     6.49341100     1.04308599     0.28893914     0.94121334     2.13948284
Ti      3.78614199     2.85140700     1.20403599    -0.15016688    -1.05356982     0.30687002
Ti      0.03206999     6.73393799     1.06848798    -0.35722946    -0.94364278     3.11146638
Ti     -0.03673199     2.94413600     1.22710801     0.07134197     0.14351903    -0.15366667
Ti      5.75106322     2.86503823     3.63133081    -0.35587038    -0.40894439    -0.21779900
Ti      5.83889923    -0.93442579     3.74230680    -0.54229934     1.20365288    -1.42521263
Ti      1.94484424     2.79951921     3.58761781    -0.17766304    -0.54970643    -0.66034001
Ti      1.90595220    -0.98845479     3.75879580    -0.46612395     0.54271663     0.14150740
O       3.54729900     4.61753099     0.70112303     0.42435688     1.71238388     0.30051271
O       3.69726402     0.87952000     0.94008698     0.35162343    -0.06676386    -0.62585482
O       0.06518998     4.79249599     0.74989401    -0.16608947    -0.24311383    -0.11292469
O      -0.10724502     0.99663502     0.84540500     0.16212277     0.25925394     0.02139647
O       5.80853822     4.81811325     4.15062981     0.31532664     0.00549676    -2.04633431
O       5.70947824     1.03591924     3.87333082     0.00414359    -1.35602602     0.74349312
O       1.83894222     4.69006225     4.05048783    -0.04026478     0.70416397    -0.27811402
O       1.82710125     0.90513022     4.01485981     0.44728958    -0.54196304     0.15362219
O       3.80997121     3.07558622     3.31454081    -0.10440354    -0.68769167    -0.77355832
O       0.00132421     2.87504720     3.16303583    -0.57372054     0.25090788     0.17539327
O       5.64398700     6.34479300     1.86507199    -0.01023917     0.97268237    -0.46040659
O       5.67322701     2.93167599     1.54649501    -0.42186214     0.13152432     0.36750694
O       1.86394802     6.64651002     1.89738202     0.05744181    -0.20827769    -0.95363383
O       1.81999000     2.95741798     1.61844798     1.24334713    -0.80781572     0.24659280
