# total energy = -19938.44290359 eV

CRYSTAL
PRIMVEC
        5.88494247     0.00000000     0.00000000
        2.12706373     5.89111741     0.00000000
        0.00000000     0.00000000    10.70284890
PRIMCOORD
24 1
Ti      3.39350468     3.49107063     3.97068062     0.38028764    -2.55528205     0.89355484
Ti      4.61850173     2.40004663     6.73216840    -0.38028764     2.55528205    -0.89355484
Ti      5.94195141     2.40004863     1.38070115    -1.19638822    -0.81850894     0.36233259
Ti      2.07005503     3.49106880     9.32214798     1.19638822     0.81850894    -0.36233259
Ti      2.32997296     0.54551208     1.38074406     0.38028764    -2.55528205    -0.89355484
Ti      5.68203347     5.34560529     9.32210507    -0.38028764     2.55528205     0.89355484
Ti      1.00652320     0.54550991     6.73212549     1.19638822     0.81850894     0.36233259
Ti      7.00548325     5.34560752     3.97072353    -1.19638822    -0.81850894    -0.36233259
O       2.61159680     2.07436252     5.46158187     1.66327811     2.06757471    -0.86491865
O       5.40040961     3.81675474     5.24126715    -1.66327811    -2.06757471     0.86491865
O       1.82886812     2.07438628     0.11019186    -0.18123636    -0.56013457     1.24747298
O       6.18313836     3.81673102    10.59265686     0.18123636     0.56013457    -1.24747298
O       4.33687787     0.87119607     0.11015713    -1.66327811    -2.06757471    -0.86491865
O       3.67512854     5.01992119    10.59269160     1.66327811     2.06757471     0.86491865
O       5.11960661     0.87117229     5.46161660     0.18123636     0.56013457     1.24747298
O       2.89239974     5.01994497     5.24123241    -0.18123636    -0.56013457    -1.24747298
O       1.50761427     3.58331147     2.89110651     0.51030863     1.97500725     1.88314505
O       6.50439214     2.30780579     7.81174251    -0.51030863    -1.97500725    -1.88314505
O       3.98953976     2.30775091     2.46035202     1.01446949     1.53031011     0.73543579
O       4.02246665     3.58336634     8.24249682    -1.01446949    -1.53031011    -0.73543579
O       0.44408253     0.63775280     2.46031783     0.51030863     1.97500725    -1.88314505
O       7.56792388     5.25336446     8.24253101    -0.51030863    -1.97500725     1.88314505
O       2.95893491     0.63780767     7.81177659    -1.01446949    -1.53031011     0.73543579
O       5.05307150     5.25330958     2.89107237     1.01446949     1.53031011    -0.73543579
