# total energy = -19942.36362141 eV

CRYSTAL
PRIMVEC
        5.57040998     0.00000000     0.00000000
        2.53934238     5.35724225     0.00000000
        0.00000000     0.00000000    10.24530038
PRIMCOORD
24 1
Ti      3.52381758     3.17469677     3.80093334     1.74201508    -3.56165591     0.99795632
Ti      4.58593459     2.18254541     6.44436709    -1.74201508     3.56165591    -0.99795632
Ti      5.83864996     2.18254722     1.32167595    -3.91828451    -0.26538088     1.04332011
Ti      2.27110231     3.17469516     8.92362465     3.91828451     0.26538088    -1.04332011
Ti      2.25414652     0.49607573     1.32171701     1.74201508    -3.56165591    -0.99795632
Ti      5.85560568     4.86116661     8.92358359    -1.74201508     3.56165591     0.99795632
Ti      1.00143111     0.49607375     6.44432603     3.91828451     0.26538088     1.04332011
Ti      7.10832114     4.86116858     3.80097446    -3.91828451    -0.26538088    -1.04332011
O       2.65721549     1.88637604     5.22809837     1.13444158     1.81770376    -1.15692332
O       5.45253668     3.47086613     5.01720212    -1.13444158    -1.81770376     1.15692332
O       1.91632347     1.88639768     0.10548113     0.80076189    -0.96451886     0.84032578
O       6.19342877     3.47084459    10.13981909    -0.80076189     0.96451886    -0.84032578
O       4.18286560     0.79224498     0.10544784    -1.13444158    -1.81770376    -1.15692332
O       3.92688658     4.56499725    10.13985231     1.13444158     1.81770376     1.15692332
O       4.92375768     0.79222339     5.22813159    -0.80076189     0.96451886     0.84032578
O       3.18599444     4.56501886     5.01716884     0.80076189    -0.96451886    -0.84032578
O       1.74695782     3.25857845     2.76751124     0.56507263     1.36583761     1.31492744
O       6.36279429     2.09866373     7.47778925    -0.56507263    -1.36583761    -1.31492744
O       3.98234855     2.09861388     2.35517157     1.48549577     0.73497814    -0.05340260
O       4.12740361     3.25862830     7.89012870    -1.48549577    -0.73497814     0.05340260
O       0.47728673     0.57995725     2.35513884     0.56507263     1.36583761    -1.31492744
O       7.63246539     4.77728494     7.89016143    -0.56507263    -1.36583761     1.31492744
O       2.85773252     0.58000709     7.47782187    -1.48549577    -0.73497814    -0.05340260
O       5.25201965     4.77723508     2.76747851     1.48549577     0.73497814     0.05340260
