# total energy = -4988.27079007 eV

CRYSTAL
PRIMVEC
        2.86234543     0.00000000     0.00000000
        0.88809223     4.39605698     0.00000000
       -0.00000591    -0.00005872     4.50768540
PRIMCOORD
6 1
Ti      1.87521582     2.19799914     2.25384280     0.00000000     0.00000000     0.00000000
Ti      0.00000000     0.00000000     0.00000000     0.00000000     0.00000000     0.00000000
O       1.60424761     0.85671536     0.87848155    -2.33259898     1.10660578     1.17305005
O       2.14618404     3.53928291     3.62920406     2.33259898    -1.10660578    -1.17305005
O       0.27096579     1.34125999     3.13232516     2.33228814    -1.10665798     1.17299555
O       0.61712052     3.05473817     1.37536044    -2.33228814     1.10665798    -1.17299555
