# total energy = -39036.04091589 eV

CRYSTAL
PRIMVEC
        7.60600008     0.00000000     0.00000000
        0.00000000     7.60600008     0.00000000
       -3.79573973    -3.79573973     9.71340985
PRIMCOORD
46 1
Ti      1.92941243     4.80008143     6.24155062    -0.78906337     0.97285849     0.03437001
Ti      3.73817599     6.77710298     1.38223299     0.04206069     0.63999615     0.41570306
Ti      1.99002344     0.75212142     6.03227362     0.90998419     0.93344063    -1.19707342
Ti      3.85843803     2.73374603     1.12974702     0.47530125     1.14973220     0.60884465
Ti     -1.83906256     4.88470444     6.15671462    -0.44863761    -2.46172343     0.65141597
Ti     -0.06360801     6.71052502     1.27424998    -0.19469352    -0.01347284    -0.70627664
Ti     -1.89278553     0.96349546     5.97675361    -0.68770402     1.34534180     0.47843003
Ti     -0.03471302     2.95275503     1.00049098    -0.25216618    -0.39819898     1.80219872
Ti      3.81515344     1.00811044     8.48590464     0.91799241     0.74814116    -1.43365820
Ti      5.75525298     2.91299598     3.64839001    -1.54372074    -0.71915788     0.05769223
Ti      3.78019647    -2.78690654     8.53715064    -0.34368206    -0.63078003     0.42310115
Ti      5.77357098    -0.95767498     3.70664099    -0.90562643     0.28236842    -1.29316278
Ti      0.01735347     0.97954143     8.26726162    -0.17295200    -0.89520497     3.91501381
Ti      1.80381401     2.77889903     3.42339897     0.63530723    -0.61957361     0.97778241
Ti     -0.03359355    -3.02359053     8.61282960     0.27359145     1.07817708    -1.06563704
Ti      1.86418498    -1.17018500     3.68454202     0.89136477     0.57382210     2.00352491
O       1.77079747    -0.96228353     5.70114963    -0.21880302    -2.08584241    -0.42038041
O       3.52922802     1.02136898     0.72199499    -0.19627089    -2.38484665     1.51841567
O      -1.96226857     2.92399647     5.70781462    -0.00548802     0.05667588    -0.54668127
O       0.07175998     4.81883700     0.74075200    -0.38318270    -0.00018281     1.03620432
O      -1.97657456    -0.98104054     5.57964963     1.08075616     0.21783371     0.53250189
O      -0.04649499     0.99052303     0.71027298     0.74703919    -0.58342518     0.87787496
O       3.65428044     2.79089844     8.96501664     0.29547360     2.26308764    -0.35236159
O       5.72078697     4.75039502     3.90823202     0.15603902     1.12972207     0.82014622
O       3.90024144    -0.77540956     8.84328661    -0.05799280    -2.75204942     0.06859500
O       5.74609699     1.03433001     4.07673798     0.19892530    -1.17397899     0.27553160
O       0.19304947     2.75767447     9.12306564    -0.41448358    -0.93904693    -0.91759801
O       1.87310702     4.51734800     4.16093299     0.02941420     0.73694889     0.59356870
O       0.00133443    -0.87761158     8.89304562     0.03271293     1.34021322     0.35045100
O       1.81729099     1.01532800     3.97028202     0.22075320     0.09280863     1.36882241
O       2.00423746     0.88964745     7.86745460    -0.18624024     0.59069703     1.54758176
O       3.89352602     2.74796200     3.13607298    -0.16690914     0.53079750    -0.34706769
O       1.83484443    -2.59894653     8.23573165     0.51364644    -1.17641460    -0.54793314
O       3.77561401    -0.78232400     3.32538402     0.39068570    -0.74473650     0.11503248
O      -1.84271854     0.91572843     8.07260064    -0.88722452     0.87976986    -0.16558862
O      -0.12642198     2.74903999     3.02302998     1.22492748     0.56016285     0.39402993
O      -1.90787454    -2.86388256     8.21521063    -0.04036788    -0.11863563    -0.98284671
O       0.04655998    -0.82787198     3.34633198    -1.86276519    -0.39367152    -0.44144238
O       3.75318144     4.99434747     6.65000164     0.62603171    -0.77782353    -1.37909834
O       5.62066002     6.70619402     1.59272398     1.09140259    -0.31257298     0.84202811
O       3.91611443     0.61620743     6.35474264    -1.02755127     1.43222018     0.22498318
O       5.72448598     2.70588601     1.34373699    -0.57928184     1.01428180     0.19357432
O      -0.01675058     4.63733645     6.57185962     0.19001128     0.03551620    -0.39402351
O       1.85629701     6.48346998     1.88751598     0.30396750    -0.06561432    -3.37112244
O       0.01727547     0.98653446     6.55391062     0.34039130     0.19790663    -4.30967983
O       1.91751901     2.91110200     1.65715301    -0.22297181     0.44443412    -2.25578648
