# total energy = -19517.77033773 eV

CRYSTAL
PRIMVEC
        5.17600016     0.00000000     0.00000000
        0.00000000     5.50899976     0.00000000
        0.00000000     0.00000000     9.26300011
PRIMCOORD
23 1
Ti      1.91994402     3.19914498     3.40034399    -0.88725023    -1.03477736     1.82642289
Ti      3.35320901     2.25101900     5.82673699     0.28939268     0.42280882    -1.76137395
Ti      4.40735798     2.05002198     1.50016601     0.65743158    -0.46093135    -1.55054985
Ti      0.81645202     3.44723100     7.77035201    -0.61310780    -0.26473836     1.08622361
Ti      1.99558599     0.26064700     1.35690302     0.83494781    -0.65240661    -1.48093720
Ti      3.16212099     5.22686399     7.85844002     0.30551479     0.13806649     1.68629797
Ti      0.70516298     0.51413899     5.92781498    -0.47448801     0.58016656    -2.55663420
Ti      4.51635399     4.94464402     3.33846402     0.25982395    -0.01518288     2.85402713
O       1.74921101     1.95310301     4.80379498    -1.23422125    -0.22612218    -0.17823357
O       3.46611601     3.59397598     4.39670802     1.22969251     0.02889921     1.20737532
O       0.15770101     2.73585199     0.05639199    -0.40923493    -0.34135572    -0.19844296
O       3.41207299     0.86293802     0.21391302    -0.03028504     0.21815304    -0.80956227
O       1.88250198     4.54771002     9.08548601    -0.19784826     0.35383483     0.41789441
O       4.22803902     0.77120901     4.89493502    -0.07962555    -0.15890400    -1.03130688
O       0.92784902     4.79006997     4.49121998     0.32749850    -0.89439379    -0.27454430
O       0.15893299     3.34474598     2.51038301     0.52559333     0.01791005     0.70001575
O       5.01928500     2.07501401     6.80837201    -0.06193816     1.22692754     0.03965517
O       2.75676301     1.66334697     2.41192000    -0.54595185     1.44110154     0.27183718
O       2.52527998     3.60095302     6.96943700     0.59733588    -0.26553669    -0.17571800
O       0.22977702     0.47304202     1.91211600    -0.49732198     0.74037720     0.19297859
O       5.00354299     5.02449899     7.31485898    -0.35814915    -1.29983094     0.47025160
O       2.29459601     0.96439998     6.92291999     0.15485143     0.18597387     0.49372604
O       2.85049999     4.51955102     2.37036001     0.20733898     0.25996048    -1.22940300
