# total energy = -19959.36846529 eV

CRYSTAL
PRIMVEC
        7.60600008     0.00000000     0.00000000
        0.00000000     7.60600008     0.00000000
       -1.89786986    -1.89786986     4.85670466
PRIMCOORD
24 1
Ti      3.80150898     6.51660002     1.19740302    -0.09914846    -0.06890405     1.43379652
Ti      3.71336202     2.77847600     1.14112698     0.04395637     0.29734896     0.43512363
Ti      0.09175500     6.68205602     1.25710601    -0.78184654     1.17244816    -0.43271348
Ti     -0.01882601     3.01238902     1.24726400     0.59750506    -1.24275269    -1.43701014
Ti      5.84876521     2.91003825     3.63025881    -1.26746691    -0.68155188    -0.84790797
Ti      5.73221223    -0.93793477     3.63602679    -0.75007309     0.54049596     0.61298902
Ti      1.92309622     2.83954322     3.61626583     0.93630510    -2.10068694     1.07975651
Ti      1.83041125    -1.09300778     3.72051380     0.61944352     0.90438793    -0.04160278
O       3.71342298     4.65047302     0.71938398     0.62239232     1.61009919     1.01409103
O       3.61789701     0.86377301     0.84646600     0.51555163    -0.62337396    -0.14428214
O      -0.03943699     4.86301801     0.72928700     0.11709065    -0.88659280     0.11549040
O      -0.14942399     1.00342902     0.72347002     0.69568087    -0.16701969     0.80052741
O       5.82468421     4.77338322     4.00894281    -0.15804448     0.19633954     0.70597531
O       5.92051625     0.97988122     3.85033579    -0.76784430     0.78507816     1.37340411
O       1.64643622     4.60558524     4.00156682     0.79542479     2.26085927     1.83406755
O       1.84541522     0.86621823     4.08979982     0.06607583     0.13804952    -0.98599760
O       3.74881520     2.88138124     2.95723980     2.43713725    -0.55925448     3.73540624
O       3.64566522    -1.03291579     3.24175682     1.81936932    -0.19663727    -0.07722491
O       0.02272822     2.95137525     3.12930681     0.09163775    -0.67864010     1.09591307
O      -0.00902078    -0.91568678     3.26831580     0.31167181    -0.21939129    -0.60444524
O       5.71960500     6.53933602     1.75321402    -1.26443275     0.15724873    -1.81786780
O       5.85013901     2.97590902     1.66224401    -2.12228010     0.02908562    -1.00999886
O       1.90096000     6.60278300     1.74716802    -0.83198281    -0.12883571    -1.46815573
O       1.92786802     3.21896399     1.88289002    -1.62612257    -0.53780042    -5.36933391
