# total energy = -19518.10221282 eV

CRYSTAL
PRIMVEC
        5.93400000     0.00000000     0.00000000
        0.00000000     9.29699974     0.00000000
        0.00000000     0.00000000     4.64899994
PRIMCOORD
23 1
Ti      4.42731299     6.98378802     2.29065602     0.86412135     0.63019562    -0.76175310
Ti      4.48562800     2.36750901     2.33676000    -0.24704788    -0.89693250     0.04792847
Ti      1.44811402     6.97344499     2.30740400    -0.80845849     0.58952666    -0.35725132
Ti      1.44394898     2.29219100     2.28225401     0.24769014    -0.43298139     0.28686863
Ti      2.96812302     4.49904101     0.03785702    -0.02681970     0.45352400     0.97082603
Ti      2.95942001     0.06823899     0.02263402    -0.14338971    -0.09603202    -0.43820227
Ti      0.01261701     4.66512101     4.60312800     0.01894081     0.66475845     0.57844135
Ti      5.90877799     0.01332997     4.59207598     0.15651776    -0.44220882    -0.03375294
O       4.34081802     5.58862803     0.94502701     0.14273330    -0.17831995    -0.13579518
O       4.55505299     0.95686799     0.86904600    -0.75077423    -0.28522878     0.64428784
O       1.49907199     5.59170202     1.00064100     0.40412923    -0.87212829    -0.75927636
O       1.41610901     0.94271498     0.85699499     1.07394428     0.40971830     1.11805002
O       4.55754499     8.36186300     3.68545300    -1.08250605    -0.17523951     0.45825354
O       4.46375901     3.69587901     3.83036703    -0.15802803     0.51362330    -0.63268856
O       1.57459300     8.49643902     3.69175899    -0.11418196    -0.83617397     0.14062063
O       1.46429902     3.71361698     3.79723201     0.27559459     0.17260413    -0.42744477
O       3.03277700     1.46463700     3.31180200    -0.47490658    -0.06451414    -0.55650186
O       0.06029001     5.99548601     3.29384898    -0.43895998     0.36914267    -0.09887438
O       5.88987800     1.41969302     3.29787501     0.70682223     0.59979257    -1.13435751
O       2.90911097     7.89228598     1.44555402     0.93466679    -0.31525825     0.39433692
O       3.02183800     3.19711998     1.34990799    -0.74994299    -0.35145116     0.95164997
O       0.01759901     7.78666702     1.44981401    -0.24560652     0.62291399    -0.42697478
O       0.00086600     3.29245798     1.47920398     0.41546189    -0.07933090     0.17160963
