# total energy = -19518.01566207 eV

CRYSTAL
PRIMVEC
        5.93400000     0.00000000     0.00000000
        0.00000000     9.29699974     0.00000000
        0.00000000     0.00000000     4.64899994
PRIMCOORD
23 1
Ti      4.50541400     7.02651702     2.29412398     0.46356339     0.22373311    -0.19901323
Ti      4.48973701     2.29771000     2.30523702    -0.95806744    -0.50959644     0.36747377
Ti      1.46662501     7.16086200     2.39222201    -0.23620322    -0.74825995    -0.76358913
Ti      1.39894901     2.29793898     2.32142900     1.09207904    -0.13367145    -0.18379178
Ti      3.03925302     4.42328600     0.04017799    -0.52593066    -0.06398810     1.21072290
Ti      2.90547399     0.05352601     4.61072498     1.09973194     0.08788214     0.03585250
Ti      0.06742702     4.63713701     0.02629201     0.52397071     0.75996618    -0.18962304
Ti      5.89663400     0.08761000     0.02917799    -0.92448111    -0.14071884     0.25735801
O       4.38642701     5.55796802     0.84054398    -0.04950172     0.09439834     0.11303654
O       4.41578201     0.96103298     0.90827697     0.04795778    -0.67036886    -0.41883800
O       1.56795902     5.50450599     0.85671601    -0.29342366    -0.05162134    -0.12430980
O       1.46937801     0.92734201     0.86692003     0.21729172     0.11573722     0.13448057
O       4.47684001     8.48430102     3.79449701    -0.50296633    -1.39279615    -0.93405539
O       4.45530599     3.65771199     3.70525698    -0.00477968     0.75570972    -0.04863166
O       1.48238899     8.24246098     3.86716601     0.19235330     0.46793889    -0.10756291
O       1.39851101     3.65191502     3.65634899     0.40321340     1.12958451     0.57301195
O       2.84582799     1.50444701     3.22833599     0.62380437    -1.44663662     0.65664096
O       0.02276198     6.04392901     3.20735400    -0.30822499     0.21978184    -0.33498016
O       0.02084498     1.28369802     3.16480302     0.00015247     0.55294885    -0.06480288
O       3.03153698     7.99353198     1.46833500    -0.42602604    -0.90462678     0.70409018
O       3.03869299     3.13273900     1.40381702    -0.93114438     1.12627010    -0.98996559
O       0.01150902     7.96294702     1.47369800    -0.12115917    -0.21590333    -0.14552706
O       5.83406599     3.12274602     1.27719401     0.61779081     0.74423668     0.45202273
