# total energy = -19958.42003888 eV

CRYSTAL
PRIMVEC
        7.60600008     0.00000000     0.00000000
        0.00000000     7.60600008     0.00000000
       -1.89786986    -1.89786986     4.85670466
PRIMCOORD
24 1
Ti      3.92951002     6.62666101     1.06602699    -1.34731743    -2.28628517     1.26239926
Ti      3.96783600     2.53850603     1.18375702    -2.71885698     2.26273411     0.60709527
Ti     -0.12168600     6.73667701     1.19363300     0.88384481     1.15134865     0.50551326
Ti     -0.10397899     3.01080498     1.30933602     3.06509395    -1.04449896    -1.15717143
Ti      5.51756322     2.92853723     3.71583280     0.31610825     0.58996426    -0.35217030
Ti      5.77943421    -0.76880278     3.77402981     0.27166775    -0.55997671    -1.52787091
Ti      1.71270821     2.65688520     3.74369282     0.56983560     2.53313816    -1.39432056
Ti      2.09195425    -0.96091879     3.54505481    -0.14887850    -1.30508191    -2.64961278
O       3.84020501     4.67004601     0.66150998     0.19554815    -0.23945541     1.84057759
O       4.16806397     0.78843701     0.54402702    -0.48664702     2.06575514     2.07063844
O      -0.11933302     4.92377401     0.69706201    -0.09278472    -1.05020656     1.96335064
O      -0.16188897     1.07632801     0.71664702     0.20317790     0.06539578     3.28766389
O       5.40882323     5.01597320     4.11124283     0.65880609    -2.75719549    -0.21758534
O       5.46840425     1.06304920     4.19005880     0.17534082     0.76616511    -0.36279822
O       2.29123023     4.60866325     4.11216582    -1.13628069     0.45644940    -2.16141410
O       1.95239920     0.93990923     4.11642681     0.28416614    -2.66874128    -1.28612798
O       3.81826924     2.76875121     3.06243881    -1.40251827    -0.45353994     0.28832387
O       3.85861424    -0.87586275     3.18659380    -1.38126784     0.64411172    -0.20765008
O      -0.19185877     2.76593821     3.37669379     2.26238444     0.52023772    -0.76960525
O      -0.00257080    -0.91296480     3.25031880     0.97284358     0.15969693    -0.12805487
O       5.68348098     6.72782202     1.78516702     0.85187827    -0.29493572    -1.27554532
O       5.74793498     2.93415598     1.69919000    -1.33705410     0.08602632    -0.63700416
O       1.95077801     6.47318500     1.47548900    -0.02906170     1.09341139     0.91077018
O       1.91934298     2.67962400     1.37085002    -0.63002875     0.26548270     1.39059863
