# total energy = -19517.56638165 eV

CRYSTAL
PRIMVEC
        5.93400000     0.00000000     0.00000000
        0.00000000     9.29699974     0.00000000
        0.00000000     0.00000000     4.64899994
PRIMCOORD
23 1
Ti      4.48921800     6.91162402     2.26017599     2.65095695     0.96277745    -0.20880219
Ti      4.41665499     2.24967098     2.42180598     0.32649963     0.10875282    -0.27546604
Ti      1.59830501     7.05686698     2.21649902    -2.66039162     0.88229520     0.05785550
Ti      1.39685897     2.35982800     2.28373501    -0.13989326    -0.29120042    -0.61689632
Ti      2.90577202     4.41416098     0.11296500     0.70574057     0.56693566     0.97347453
Ti      2.96969600     0.00684898     4.49105302    -0.58322900    -1.61997120     0.50548421
Ti      0.02185502     4.67124799     4.64821099    -0.71830941     1.09615244     0.04807682
Ti      5.92027701     0.15947402     0.04397601     0.20459304    -1.97184659     0.27228455
O       4.50001501     5.63745098     0.83047898    -0.80059271    -0.23574119     0.13200306
O       4.48763200     0.95466201     1.03115198    -0.50665124    -0.10005117    -0.73941818
O       1.56585099     5.46196702     1.00107598    -0.44426905     0.59585698    -0.54195764
O       1.52244602     0.87185598     0.89407698    -0.06693972     1.11866940     0.80461392
O       4.49234797     8.42330498     3.80517602    -0.34392657    -0.20798587    -0.76222387
O       4.33791802     3.72535799     3.84460898     1.09531504    -0.19145238    -0.71707297
O       1.35009399     8.42126701     3.60806400     1.54028677     0.12326182     0.86738948
O       1.46535298     3.71370397     3.79864200     0.22471219    -0.22736685    -0.33783537
O       2.88098002     1.33817301     3.25589898     0.22525803     1.13835995    -0.64067775
O       0.14037898     6.08057898     3.10904202    -0.96828269    -1.05342918     1.34529860
O       0.07467998     1.50354402     3.27275100    -0.77380901    -0.26351503     0.41817980
O       3.03499002     7.90947101     1.39393400     0.09882321    -0.44302721     0.21967694
O       2.96992598     3.24677601     1.56846899    -0.08153100     0.09818352    -0.44877620
O       0.01034801     7.87493198     1.35601702    -0.04206146     0.25044071    -0.02215983
O       5.77708598     3.33156698     1.51822699     1.05770081    -0.33609859    -0.33305054
