# total energy = -19904.14940165 eV

CRYSTAL
PRIMVEC
        6.66881224     0.00000000     0.00000000
        3.34009096     6.26260273     0.00000000
        0.00000000     0.00000000    12.35127880
PRIMCOORD
24 1
Ti      4.39645852     3.71121258     4.58223636    -0.04752300    -2.17077755     0.31633528
Ti      5.61244485     2.55139031     7.76904257     0.04752300     2.17077755    -0.31633528
Ti      7.11217733     2.55139254     1.59335376    -0.49541217    -1.47444902     0.57804360
Ti      2.89672625     3.71121064    10.75792524     0.49541217     1.47444902    -0.57804360
Ti      2.72641330     0.57991143     1.59340330    -0.04752300    -2.17077755    -0.31633528
Ti      7.28249020     5.68269170    10.75787576     0.04752300     2.17077755     0.31633528
Ti      1.22668071     0.57990902     7.76899303     0.49541217     1.47444902     0.57804360
Ti      8.78222277     5.68269405     4.58228584    -0.49541217    -1.47444902    -0.57804360
O       3.28682405     2.20516893     6.30276306     1.75559051     1.94226141    -0.90299773
O       6.72207940     4.05743401     6.04851588    -1.75559051    -1.94226141     0.90299773
O       2.39984026     2.20519414     0.12716334     0.28512311    -1.28050987     1.86529361
O       7.60906327     4.05740884    12.22411519    -0.28512311     1.28050987    -1.86529361
O       5.05203405     0.92613261     0.12712326    -1.75559051    -1.94226141    -0.90299773
O       4.95686938     5.33647026    12.22415528     1.75559051     1.94226141     0.90299773
O       5.93901792     0.92610745     6.30280308    -0.28512311     1.28050987     1.86529361
O       4.06988547     5.33649550     6.04847579     0.28512311    -1.28050987    -1.86529361
O       2.27392601     3.80926995     3.33638854     0.64279737     3.26996724     3.03344211
O       7.73497745     2.45333299     9.01489033    -0.64279737    -3.26996724    -3.03344211
O       4.88514006     2.45327450     2.83929015     0.48421784     2.18297049     2.10256590
O       5.12376339     3.80932844     9.51198852    -0.48421784    -2.18297049    -2.10256590
O       0.60388066     0.67796855     2.83925073     0.64279737     3.26996724    -3.03344211
O       9.40502278     5.58463432     9.51202794    -0.64279737    -3.26996724     3.03344211
O       3.45371804     0.67802704     9.01492968    -0.48421784    -2.18297049     2.10256590
O       6.55518540     5.58457583     3.33634912     0.48421784     2.18297049    -2.10256590
