# total energy = -4990.17131615 eV

CRYSTAL
PRIMVEC
        3.97333888     0.00000000     0.00000000
       -0.00000802     3.59492606     0.00000000
       -1.98669748    -1.79749911     4.84149854
PRIMCOORD
6 1
Ti     -0.00017369     2.69632962     1.21037440    -0.00033604    -0.00290766     2.54441863
Ti      1.98680675    -0.89890257     3.63112356     0.00033604     0.00290766    -2.54441863
O       0.00004037     0.89872474     0.78864047     0.00029722     0.00115185    -0.14900474
O       1.98659254     0.89870220     4.05285760    -0.00029722    -0.00115185     0.14900474
O      -0.00002037    -0.89871218     3.20938963    -0.00085361    -0.00027768    -0.07025491
O       1.98665328     2.69613907     1.63210843     0.00085361     0.00027768     0.07025491
