# total energy = -19946.03686110 eV

CRYSTAL
PRIMVEC
        5.70468926     0.00000000     0.00000000
        1.78140192     5.80429964     0.00000000
        0.00000000     0.00000000    10.32958613
PRIMCOORD
24 1
Ti      3.12333257     3.43962262     3.83220278     0.47474898    -2.35752764     0.96242855
Ti      4.36275851     2.36467715     6.49738341    -0.47474898     2.35752764    -0.96242855
Ti      5.64567135     2.36467915     1.33254904    -1.24639620    -0.65158952     0.35557856
Ti      1.84041983     3.43962084     8.99703726     1.24639620     0.65158952    -0.35557856
Ti      2.23263175     0.53747290     1.33259046     0.47474898    -2.35752764    -0.96242855
Ti      5.25345936     5.26682704     8.99699585    -0.47474898     2.35752764     0.96242855
Ti      0.94971888     0.53747073     6.49734199     1.24639620     0.65158952     0.35557856
Ti      6.53637222     5.26682921     3.83224420    -1.24639620    -0.65158952    -0.35557856
O       2.43283204     2.04379261     5.27110874     1.47734588     1.88267968    -0.79303135
O       5.05325905     3.76050721     5.05847745    -1.47734588    -1.88267968     0.79303135
O       1.67407689     2.04381603     0.10634890    -0.24415025    -0.35866311     1.00952346
O       5.81201426     3.76048384    10.22323700     0.24415025     0.35866311    -1.00952346
O       4.16255820     0.85835732     0.10631539    -1.47734588    -1.88267968    -0.79303135
O       3.32353289     4.94594251    10.22327052     1.47734588     1.88267968     0.79303135
O       4.92131341     0.85833395     5.27114225     0.24415025     0.35866311     1.00952346
O       2.56477763     4.94596594     5.05844394    -0.24415025    -0.35866311    -1.00952346
O       1.29081419     3.53050411     2.79027892     0.37819527     1.45270288     1.39144452
O       6.19527690     2.27379571     7.53930727    -0.37819527    -1.45270288    -1.39144452
O       3.75745617     2.27374159     2.37454703     1.03131048     1.17958786     0.35680806
O       3.72863492     3.53055824     7.95503899    -1.03131048    -1.17958786    -0.35680806
O       0.40011328     0.62835423     2.37451403     0.37819527     1.45270288    -1.39144452
O       7.08597775     5.17594560     7.95507198    -0.37819527    -1.45270288     1.39144452
O       2.83793407     0.62840834     7.53934021    -1.03131048    -1.17958786     0.35680806
O       4.64815702     5.17589148     2.79024592     1.03131048     1.17958786    -0.35680806
