# total energy = -19073.66080471 eV

CRYSTAL
PRIMVEC
        5.17600016     0.00000000     0.00000000
        0.00000000     5.50899976     0.00000000
        0.00000000     0.00000000     9.26300011
PRIMCOORD
22 1
Ti      1.80264299     3.38642102     3.22153003    -0.12155280     0.58915154     0.09047921
Ti      3.73539902     2.36160800     5.94103901    -1.53511705    -0.36012401    -0.01163013
Ti      4.29754899     2.23916099     1.19868098     0.81108642     0.19178123    -1.19126838
Ti      0.81966698     3.20683498     8.19281500    -0.22868171     0.90336849     0.22886118
Ti      1.78947097     0.49541902     1.34627598    -1.32651155     0.14505835    -2.07421690
Ti      3.16687999     5.10160001     7.94279600     1.15453348    -0.82435229     0.72701106
Ti      0.62585799     0.11997200     6.06951902     0.63663983     2.19569103    -2.09092265
Ti      4.38592101     4.99917997     3.45579801     0.40790515     0.12088020     0.03565993
O       3.42374098     3.48120302     4.35609102    -0.10638123    -0.52135872     1.51429496
O       0.99582099     2.03286399     0.26219399    -0.90809752    -0.65135452     0.18974054
O       4.32335400     3.66195398     9.00665601     0.20996896    -0.21245830     0.76764144
O       3.30519099     0.84516502     0.18528602     1.87437707     0.90711741    -1.16012357
O       1.67074900     4.84654202     8.95722001    -2.46244977    -0.52415917     0.65890174
O       4.42142298     0.88132100     4.70833902    -0.44449248     0.38479196     1.20548196
O       0.97013102     4.83862500     4.29770002     0.14216380    -1.56834394     1.45596587
O       0.03960098     3.61566399     2.27170099     0.82936285    -1.09918789     0.87805751
O       0.25019500     2.22080901     6.60738700     0.05140794    -1.08110429     0.11863486
O       2.67528803     1.84489599     2.27669399     0.17889845     2.04743474     1.29912106
O       2.59980698     3.22996903     7.46848602     0.45919020    -0.08107334    -2.91484505
O       5.15280902     0.69454101     2.07939401     0.48557949     0.31814739     0.12497314
O       2.48455699     0.61173599     6.43675702    -0.35509673    -0.11951520     0.57228741
O       2.70598099     4.78279802     2.39136898     0.24726694    -0.76039067    -0.42410517
