# total energy = -19073.90662634 eV

CRYSTAL
PRIMVEC
        5.93400000     0.00000000     0.00000000
        0.00000000     9.29699974     0.00000000
        0.00000000     0.00000000     4.64899994
PRIMCOORD
22 1
Ti      4.41662901     7.06770299     2.30516802     0.10040702    -2.33848064    -0.06382920
Ti      4.42709502     2.20568100     2.36997403    -1.39833842     0.50522479    -0.51453681
Ti      1.51522899     7.13915499     2.40772902    -0.00359158    -0.89177101     1.68985869
Ti      1.51561201     2.45830599     2.02594002     0.41129490     0.30049908     0.92178325
Ti      2.96758601     4.69988103     0.01633501     0.96405837    -0.07898406    -0.71984282
Ti      3.03080602     0.00641400     4.59395800    -0.06269303     1.15645949    -0.17573342
Ti      5.82547400     4.46605702     4.46368498    -0.37854803     0.53846402    -0.59736133
Ti      0.02405100     9.14718601     0.16444400    -0.16743750     0.33594843     0.90686262
O       4.66261001     5.59576102     0.96681001    -1.06743373    -0.03481789    -0.64745132
O       4.54690800     0.89754801     1.03175001    -0.19000665    -0.30903437    -1.08565771
O       1.36523502     0.88378702     0.99992000     0.16793449     0.85909073    -0.64596394
O       4.47014999     8.28350402     3.88663000     0.35164014     0.91315359    -0.08318525
O       4.24867799     3.60321102     3.61072899     1.07345602     1.17536019     1.16941657
O       1.44478698     8.28467599     3.99994198     0.54938350    -0.39371137    -1.22184035
O       1.57307701     3.71306499     3.76582698    -0.57111062     0.64634986    -0.47233754
O       3.05523898     6.16267099     3.35629898    -0.96021226    -0.08753735    -0.51882387
O       2.76517698     1.20744199     3.18296999     0.76970501     1.18935651    -0.13501948
O       5.89894000     6.09670899     3.23711900     1.17692831    -0.60682582    -0.04300223
O       2.96723400     8.18784402     1.46560201    -0.46923267    -2.64983492     1.92420301
O       3.05265798     3.19719898     1.26142997     0.01355152    -0.00446601     0.92621198
O       0.05084901     7.98379999     1.69464903    -0.22328419     0.86783043    -1.52780509
O       5.91515500     3.30093101     1.31501198    -0.08647035    -1.09227368     0.91405425
