# total energy = -4988.64371464 eV

CRYSTAL
PRIMVEC
        4.29280332     0.00000000     0.00000000
       -0.00000867     3.88396534     0.00000000
       -2.14643195    -1.94202165     5.23076475
PRIMCOORD
6 1
Ti     -0.00018765     2.91311994     1.30769093    -0.00179772    -0.00008356     1.50417484
Ti      2.14655001    -0.97117614     3.92307319     0.00179772     0.00008356    -1.50417484
O       0.00004361     0.97098402     0.85204875    -0.00020569    -0.00083972    -0.60630389
O       2.14631858     0.97095966     4.37871549     0.00020569     0.00083972     0.60630389
O      -0.00002201    -0.97097044     3.46743101    -0.00193218    -0.00035404    -1.23914311
O       2.14638420     2.91291407     1.76333323     0.00193218     0.00035404     1.23914311
