# total energy = -19073.38854953 eV

CRYSTAL
PRIMVEC
        5.17600016     0.00000000     0.00000000
        0.00000000     5.50899976     0.00000000
        0.00000000     0.00000000     9.26300011
PRIMCOORD
22 1
Ti      1.86696898     3.51397502     3.41036597     0.68393092     0.22605636    -0.72923455
Ti      3.57182600     2.11915798     5.87625200     1.63530963     0.26203022    -1.14829855
Ti      4.37356901     2.21774598     1.41563201    -0.09014240     1.57037949    -2.33266480
Ti      0.62695698     3.12568200     7.87337901    -1.39048447    -2.13713799     3.45071920
Ti      1.81374301     0.53674999     1.21992501    -0.19525016     1.76516222    -1.41310582
Ti      3.23322198     5.12571001     8.16138399     0.91804589    -0.25540166     0.96360637
Ti      0.87657402     5.45597901     6.11274602    -1.74477079     2.44421370    -2.07365563
Ti      4.41381198     5.07276302     3.28356801     0.32985466    -0.47321608     1.57026739
O       3.59929098     3.29911101     4.30873199    -0.41113035     0.13709616     1.43629435
O       0.99232302     1.83145198     0.10619503    -0.56326103     0.59328253    -0.35631492
O       4.40560302     3.66360899     8.98713900    -1.47454466     0.70457072    -0.31374669
O       3.54454802     0.95023898     0.13746199    -0.28953512    -0.53553682    -0.06663556
O       1.77532802     4.65298401     9.23989797     0.11550222    -0.54851190    -1.77146554
O       4.42520602     0.73990600     4.91159098    -0.78704094    -0.37333280    -0.39703633
O       1.20513398     5.11037303     4.25599302    -0.39278680    -1.10412621     1.39817285
O       0.19440797     3.75432399     2.31366502    -0.19855429    -1.64669705     0.30606475
O       4.95534801     1.58135800     7.09810401     0.22811864     0.20386207    -0.55885082
O       2.49247501     2.19971601     2.12472699     1.67252302    -0.23129164     0.53838303
O       1.72906100     3.91151699     6.65078800     2.03300365    -0.30226517    -0.43266514
O       0.13863200     0.82007800     2.13223199    -0.34571117    -0.19176092     1.38239912
O       2.33827800     1.02937099     6.69011402    -0.41283910    -0.87868666     0.85938692
O       2.76440301     4.79630098     2.39411901     0.67976316     0.77131144    -0.31161936
