# total energy = -19924.00447873 eV

CRYSTAL
PRIMVEC
        6.16198251     0.00000000     0.00000000
        3.08624404     5.78664492     0.00000000
        0.00000000     0.00000000    11.41258161
PRIMCOORD
24 1
Ti      4.06232768     3.42916043     4.23398640     0.64153496    -2.89142538     0.55712895
Ti      5.18589904     2.35748464     7.17859534    -0.64153496     2.89142538    -0.55712895
Ti      6.57165185     2.35748670     1.47225887    -1.80985727    -1.17860107     0.75493685
Ti      2.67657506     3.42915863     9.94032292     1.80985727     1.17860107    -0.75493685
Ti      2.51920589     0.53583816     1.47230465     0.64153496    -2.89142538    -0.55712895
Ti      6.72902094     5.25080713     9.94027721    -0.64153496     2.89142538     0.55712895
Ti      1.13345298     0.53583593     7.17854956     1.80985727     1.17860107     0.75493685
Ti      8.11477384     5.25080930     4.23403212    -1.80985727    -1.17860107    -0.75493685
O       3.03702542     2.03757609     5.82375306     1.72332701     2.05958218    -1.08154600
O       6.21120137     3.74906902     5.58882867    -1.72332701    -2.05958218     1.08154600
O       2.21745240     2.03759938     0.11749893     0.59722223    -1.32311846     1.68469746
O       7.03077446     3.74904577    11.29508244    -0.59722223     1.32311846    -1.68469746
O       4.66807947     0.85574653     0.11746189    -1.72332701    -2.05958218    -1.08154600
O       4.58014731     4.93089852    11.29511948     1.72332701     2.05958218     1.08154600
O       5.48765256     0.85572328     5.82379004    -0.59722223     1.32311846     1.68469746
O       3.76057417     4.93092184     5.58879163     0.59722223    -1.32311846    -1.68469746
O       2.10110763     3.51976543     3.08282301     0.68373577     2.98426923     2.78130062
O       7.14711916     2.26687968     8.32975866    -0.68373577    -2.98426923    -2.78130062
O       4.51386942     2.26682564     2.62350410     0.83532524     1.89903344     1.61586797
O       4.73435737     3.51981947     8.78907739    -0.83532524    -1.89903344    -1.61586797
O       0.55798573     0.62644294     2.62346767     0.68373577     2.98426923    -2.78130062
O       8.69024105     5.16020211     8.78911382    -0.68373577    -2.98426923     2.78130062
O       3.19123547     0.62649698     8.32979503    -0.83532524    -1.89903344     1.61586797
O       6.05699131     5.16014807     3.08278659     0.83532524     1.89903344    -1.61586797
