# total energy = -19951.41402168 eV

CRYSTAL
PRIMVEC
        5.66744899     0.00000000     0.00000000
        0.00003106     6.03187959     0.00000000
        0.00000000     0.00000000    10.14348750
PRIMCOORD
24 1
Ti      2.05419608     3.57448627     3.76316159     0.02631371    -0.60312215     0.48766106
Ti      3.61328398     2.45739338     6.38032620    -0.02631371     0.60312215    -0.48766106
Ti      4.88782136     2.45739546     1.30854177     0.02642247     0.60346385    -0.48746360
Ti      0.77965870     3.57448442     8.83494613    -0.02642247    -0.60346385     0.48746360
Ti      2.05418066     0.55854659     1.30858245     0.02631371    -0.60312215    -0.48766106
Ti      3.61329939     5.47333324     8.83490545    -0.02631371     0.60312215     0.48766106
Ti      0.77964328     0.55854434     6.38028552    -0.02642247    -0.60346385    -0.48746360
Ti      4.88783677     5.47333548     3.76320227     0.02642247     0.60346385     0.48746360
O       1.79379433     2.12392740     5.17614413     1.03084769     0.93721296     0.04685092
O       3.87368573     3.90795231     4.96734365    -1.03084769    -0.93721296    -0.04685092
O       1.03998518     2.12395169     0.10443289    -1.03088908     0.93645757     0.04673573
O       4.62749493     3.90792801    10.03905461     1.03088908    -0.93645757    -0.04673573
O       3.87367031     0.89201245     0.10439998    -1.03084769    -0.93721296     0.04685092
O       1.79380974     5.13986720    10.03908752     1.03084769     0.93721296    -0.04685092
O       4.62747952     0.89198816     5.17617705     1.03088908    -0.93645757     0.04673573
O       1.04000048     5.13989155     4.96731074    -1.03088908     0.93645757    -0.04673573
O       0.20593040     3.66893111     2.74000909     0.36150804    -0.21302215     0.24791691
O       5.46154965     2.36294854     7.40347869    -0.36150804     0.21302215    -0.24791691
O       3.03965944     2.36289232     2.33176705     0.36129926     0.21298512    -0.24744640
O       2.62782061     3.66898732     7.81172057    -0.36129926    -0.21298512     0.24744640
O       0.20591499     0.65299126     2.33173466     0.36150804    -0.21302215    -0.24791691
O       5.46156507     5.37888839     7.81175296    -0.36150804     0.21302215     0.24791691
O       2.62780520     0.65304747     7.40351103    -0.36129926    -0.21298512    -0.24744640
O       3.03967486     5.37883218     2.73997670     0.36129926     0.21298512     0.24744640
