# total energy = -4944.88530503 eV

CRYSTAL
PRIMVEC
        5.59062776     0.00000000     0.00000000
       -0.00000730     2.39598348     0.00000000
       -2.79534595    -1.19807842     6.06707850
PRIMCOORD
6 1
Ti     -0.00023888     1.79706201     1.51676957    -0.02555755    -0.01893567    45.80570256
Ti      2.79551312    -0.59915689     4.55030882     0.02555755     0.01893567   -45.80570256
O       0.00005940     0.59898119     0.98827750     0.02328160     0.01936376   -39.85958721
O       2.79521467     0.59892388     5.07880094    -0.02328160    -0.01936376    39.85958721
O      -0.00002337    -0.59902455     4.02181676    -0.00148558     0.00000463    -1.34055929
O       2.79529738     1.79692956     2.04526169     0.00148558    -0.00000463     1.34055929
