# total energy = -19518.57466265 eV

CRYSTAL
PRIMVEC
        7.60600008     0.00000000     0.00000000
        0.00000000     7.60600008     0.00000000
       -1.89786986    -1.89786986     4.85670466
PRIMCOORD
23 1
Ti      3.75523698     6.66460302     1.23145499     0.13216041    -0.12900335    -0.93738445
Ti      3.78753701     2.71923900     1.26692400    -0.46752854     0.75404082     0.12919233
Ti     -0.09014201     6.57324400     1.15603401     0.52812433     0.24917778    -0.33225273
Ti      0.05022898     2.77325001     1.22780002     0.33898414     0.11709554    -0.26732824
Ti      5.64049925     2.86058023     3.63772380     0.47300988     0.86130162     0.49916444
Ti      5.67868923    -0.79406475     3.58570483     0.61103806    -1.18274903     0.80531069
Ti      1.99918223     2.82072821     3.79739579     0.10576314     0.60044460    -1.54057730
Ti      1.89396120    -0.92732180     3.51032279    -0.85348727    -0.48861597     0.84693018
O       3.57467001     4.68712399     0.75098502     0.46491682     1.40745556     1.50723343
O       3.87401198     0.89476502     0.82564198    -0.10634395     0.29401655    -0.55566162
O       0.21060699     4.73393400     0.74126599    -0.51335950     0.26216057     0.78797451
O      -0.05477101     0.95786702     0.65456501    -0.30171393    -0.55863588     1.29813838
O       5.74399621     4.72703824     4.05971583     0.04906284    -0.00373299    -0.37884036
O       5.92019324     0.95308321     4.17861381    -0.25017923     1.13967995    -2.04179580
O       2.07638622     4.75427224     3.86901781    -1.18905312     0.76077351     1.11930035
O       1.73822021     0.96481120     4.14398482     0.22377553    -1.34429433    -0.55814968
O       3.83909025     3.00453322     3.40352980     0.01117916    -1.41900727    -1.17683061
O       3.74785025    -0.67265477     3.16173882     0.42772502    -0.36223052     0.10122848
O      -0.09905277    -0.95498380     3.20966381     1.47281611    -0.09199796    -0.42521331
O       5.67330898     6.70417701     1.61821398    -0.22811273    -0.70248221    -0.67784923
O       5.76674501     2.92550102     1.59900299     0.10023218    -0.29674501     0.81661558
O       1.88215700     6.68837699     1.59260201    -0.44888213     0.19271531     0.19861651
O       1.91585798     2.66392098     1.68603201    -0.58012748    -0.05936731     0.78217847
