# total energy = -19517.15842486 eV

CRYSTAL
PRIMVEC
        5.17600016     0.00000000     0.00000000
        0.00000000     5.50899976     0.00000000
        0.00000000     0.00000000     9.26300011
PRIMCOORD
23 1
Ti      1.77714898     3.20181299     3.39114398     1.40742599    -0.25107989     3.36259692
Ti      3.35220400     2.20315301     5.84999798     0.41956537     0.88189694    -3.30082846
Ti      4.33766698     2.11042899     1.54991503     0.88160640    -0.17343666    -1.99579746
Ti      0.87147301     3.42515701     7.72193700    -0.98838667    -1.02666064     2.12165120
Ti      2.03582500     0.24935499     1.29498500    -1.07411551     0.15265699     0.63911323
Ti      3.23016800     5.12770803     7.85689101     1.36355344    -0.06669753     2.25244378
Ti      0.78259299     0.51924200     5.94469901    -0.47032333    -0.03654799    -3.39646916
Ti      4.51164500     5.01182599     3.33567202    -0.28659326    -0.64292695     3.26392334
O       1.72072799     1.82079001     4.86013198    -0.36564803     0.24728725    -0.51631730
O       3.45403701     3.54410801     4.39780099     0.82135541    -0.89953111     1.45747819
O       5.11946302     2.78534001     9.23663099    -0.07892364     0.01603238     0.32105274
O       3.39769498     0.72755299     0.26091100     2.31427241     1.25527705    -0.78141665
O       1.86437501     4.64944398     9.05341099    -1.27037920    -1.70156159     0.00296757
O       4.25519798     0.72677902     4.77937001     0.09130556    -0.05877570     0.08466517
O       1.01901202     4.65086302     4.43867400    -0.98523398     0.78017043     1.22962180
O       0.14013899     3.37845701     2.57927998    -0.97645932     0.04372523    -1.30945458
O       5.03186101     2.01006401     6.76525798     0.17128721     1.01307236     0.25263772
O       2.58117999     1.97851801     2.20906498     0.17158160    -0.25866593    -0.71800731
O       2.60557400     3.62055798     6.92655099     0.29114874    -0.93452873     0.01513660
O       0.25898702     0.72778599     2.20901402     0.27597563    -0.12089974    -1.13428243
O       5.13540099     4.94939799     7.34552698    -1.37069828    -0.15573846    -0.17002712
O       2.39667102     0.89500399     7.02477799    -0.80288382     1.47472207    -0.75382407
O       2.79041900     4.59046701     2.44108598     0.46056677     0.46221099    -0.92686375
