# total energy = -4976.11338048 eV

CRYSTAL
PRIMVEC
        2.76729450     0.00000000     0.00000000
        1.85715277     3.91807630     0.00000000
       -0.00001213    -0.00005826     4.45575371
PRIMCOORD
6 1
Ti      2.31221747     1.95900904     2.22787676     0.00000000     0.00000000     0.00000000
Ti      0.00000000     0.00000000     0.00000000     0.00000000     0.00000000     0.00000000
O       1.74557654     0.76356406     0.86836074   -11.28277644     4.58324454     6.52536994
O       2.87885836     3.15445403     3.58739277    11.28277644    -4.58324454    -6.52536994
O       0.56663586     1.19542147     3.09623842    11.28429751    -4.58602313     6.52934872
O       1.29050466     2.72259649     1.35951509   -11.28429751     4.58602313    -6.52934872
