# total energy = -19961.12024259 eV

CRYSTAL
PRIMVEC
        7.60600008     0.00000000     0.00000000
        0.00000000     7.60600008     0.00000000
       -1.89786986    -1.89786986     4.85670466
PRIMCOORD
24 1
Ti      3.78691602     6.66791101     1.28739702     1.47268730     0.45139307     0.22442602
Ti      3.77307200     2.89172200     1.14568198     2.06363835     0.02835645     1.82290948
Ti      0.06700998     6.56099598     1.25110700    -1.57943389    -0.46448924    -1.48889323
Ti      0.10463797     2.80331902     1.17217799    -1.93194512     0.57258283    -0.93818792
Ti      5.73610422     2.83514120     3.58443682    -1.84245167    -0.35161674    -0.18893116
Ti      5.68369721    -1.06725378     3.65125884    -1.69816387     0.02490551    -0.26042302
Ti      1.86167922     2.95081522     3.66913280     1.66930143     0.87656910    -0.15487020
Ti      1.77216323    -0.89397580     3.67851183     1.90379770    -1.00457794     0.24910117
O       3.79614000     4.84873700     0.78016703    -0.46283525    -0.74757886    -0.57362413
O       3.83986899     0.96782201     0.81591099    -0.54030133     0.31022994    -0.52412086
O       0.05763799     4.73804402     0.74612003     0.60340548    -0.41258405     0.27079923
O       0.01640301     0.86417201     0.80699801     0.41248583     0.38423454    -0.06941313
O       5.49233724     4.66159420     4.02523581     0.71040275     1.92791542     0.66042743
O       5.59447221     0.95363625     4.05683584     0.99828774    -0.91974642     0.22143223
O       2.10028022     4.86458924     4.03298079    -1.03705125    -0.60143165     0.15703224
O       1.91811724     1.05768022     4.08802179    -0.77723269    -0.83221729    -0.70996592
O       3.84235823     2.88511321     3.27539180    -1.86733687    -0.18561983    -0.99802497
O       3.78051424    -0.85854580     3.22293483     0.11388423     0.17153610    -0.24192547
O      -0.08128380     3.11670922     3.11461579     2.63810812    -0.57166880     0.56014640
O      -0.07687178    -1.08186479     3.18788483     1.63179134     0.50942906     1.05731720
O       5.74970699     6.49007099     1.62551498    -0.86854622     0.44941537     0.52549254
O       5.69349302     2.94400402     1.58457000    -0.27540227    -0.60016589    -0.20046307
O       1.93297601     6.47051202     1.66767400    -0.80868783     0.85424111     0.15407599
O       1.94002301     2.78341100     1.59926001    -0.52840175     0.13088823     0.44568316
