# total energy = -19519.32305074 eV

CRYSTAL
PRIMVEC
        7.60600008     0.00000000     0.00000000
        0.00000000     7.60600008     0.00000000
       -1.89786986    -1.89786986     4.85670466
PRIMCOORD
23 1
Ti      3.83836998     6.70102401     1.15789602    -0.55002499     0.31671863     0.87152151
Ti      3.76538200     2.90200100     1.30888601     0.18469861    -0.70594549     0.71157646
Ti      0.00287999     6.66507600     1.17080202     0.58798529    -0.62570595    -0.62628008
Ti     -0.06154898     2.75868700     1.11680398     0.41229351     0.67871261     1.13485450
Ti      5.67040321     2.84305521     3.67495582    -0.63250395     0.91156928     0.15673374
Ti      5.75643421    -0.93730478     3.57877880    -1.86799019    -1.06047606    -0.17082570
Ti      1.92688524     2.83062922     3.74448182     0.82996861     0.38708615    -0.96448312
Ti      1.82957425    -0.90812780     3.62312682     2.17690475    -0.60548345    -0.11064721
O       3.79412902     4.73075899     0.79418800    -0.27973279    -0.28977732     1.01775974
O       3.87790201     0.94930599     0.77018801    -0.45977461     0.90880354     0.20332651
O       0.08932300     4.82088100     0.75862702    -0.09489380    -1.00679321     0.08102475
O       0.03193299     0.92065999     0.70666198    -0.02706678    -0.10781000     0.60760795
O       5.69302025     4.74329621     3.97784481     0.53969507    -0.30864794     0.15342421
O       5.66850924     0.90723121     4.12283181     0.45338336     0.90608023    -1.75031075
O       2.02009923     4.76490723     4.06172581    -0.84061863    -0.40731637    -0.06423467
O       1.82326122     0.94658623     4.07426281    -0.39343447     0.12851561     0.03377274
O       3.79957521     2.84945423     3.30351980    -0.23226352    -0.28844086    -0.74091353
O       3.84404822    -1.06502176     3.21992784    -0.18111912     0.73756415    -0.45902899
O       0.03635823    -1.08558676     3.22592982    -0.50059063     0.41503123    -0.54996971
O       5.70094098     6.68022100     1.57343198     1.07136906     0.04465442     0.36493121
O       5.74424101     2.78025700     1.64827400    -0.04829459     0.20649977     0.04468887
O       1.92735599     6.74230598     1.54256401    -0.38859590    -0.03091418     0.77103813
O       1.71912300     2.85350302     1.82718099     0.24060572    -0.20392507    -0.71556604
