# total energy = -39040.45371058 eV

CRYSTAL
PRIMVEC
        7.60629642    -0.00000847    -0.00005503
       -0.00000847     7.60629642    -0.00005503
       -3.80314186    -3.80314186     9.70738094
PRIMCOORD
46 1
Ti      1.90145132     4.75415488     6.08759976    -0.00015992     0.00016918     0.27003047
Ti      3.79197674     6.65563676     1.23211381    -0.04001846    -0.00015118    -0.07146075
Ti      1.90147626     0.95100668     6.08760796    -0.00021880     0.00016841     0.27007032
Ti      3.79198097     2.85249388     1.23214130    -0.04001821    -0.00011081    -0.07145998
Ti     -1.90159998     4.75397202     5.92616492    -0.00016147    -0.00056667     0.19019691
Ti      0.01083302     6.65565803     1.23213100     0.04060493    -0.00020209    -0.07192947
Ti     -1.90161945     0.95082382     5.92627111    -0.00012856    -0.00056796     0.18986473
Ti      0.01083719     2.85249818     1.23215867     0.04060468     0.00026868    -0.07193075
Ti      3.71400598     0.95070470     8.53085780     0.20476710     0.00021726    -0.13546196
Ti      5.70488727     2.85224151     3.61898426     0.00003960     0.00049674    -0.15999904
Ti      3.71400208    -2.85244352     8.53089218     0.20510083     0.00021880    -0.13560929
Ti      5.70489161    -0.95085212     3.61901164     0.00004011    -0.00002982    -0.15999827
Ti      0.08910508     0.95069433     8.53094839    -0.20403228     0.00028796    -0.13614716
Ti      1.90173590     2.85221715     3.64586878     0.00001903    -0.00006891     0.09183958
Ti      0.08915327    -2.85245389     8.53100858    -0.20451616     0.00028796    -0.13640761
Ti      1.90174017    -0.95094423     3.64589627     0.00001851     0.00011493     0.09183984
O       1.90158243     2.85234167     5.70111824     0.00003985     0.00004371     0.01377495
O       3.77323513     4.75393146     0.78602236     0.04820820     0.00000360     0.09663109
O       1.90158667    -0.95081330     5.70114570     0.00003934    -0.00010079     0.01377546
O       3.77324746     0.95078324     0.78604684     0.04822594     0.00000283     0.09674139
O      -1.90150638     2.85235278     5.62301949     0.00010182    -0.00035995    -0.28690000
O       0.02996237     4.75393496     0.78608727    -0.04863526     0.00003060     0.09607753
O      -1.90150212    -0.95077939     5.62304696     0.00010233    -0.00021674    -0.28690000
O       0.02997254     0.95078680     0.78612242    -0.04864220     0.00002982     0.09570061
O       3.95762357     2.85230921     8.85864150     0.16414777     0.00082250     0.16568452
O       5.70466531     4.75391708     4.00756634     0.00007019     0.00009359    -0.17281702
O       3.95762770    -0.95078998     8.85866910     0.16414803    -0.00051525     0.16568401
O       5.70466392     0.95076886     4.00761499     0.00003831     0.00009282    -0.17274477
O      -0.15441543     2.85233759     8.85861727    -0.16439383     0.00010053     0.16617792
O       1.90152683     4.75392480     4.09326774     0.00020775    -0.00012110     0.05992472
O      -0.15441113    -0.95081562     8.85864488    -0.16439408     0.00021494     0.16617689
O       1.90152589     0.95077658     4.09330656     0.00024863    -0.00012058     0.05980851
O       1.90158317     0.95083435     8.08648689    -0.00077699    -0.00005476     0.20270559
O       3.80579126     2.85240160     3.21841941    -0.05624522    -0.00006016    -0.02421209
O       1.90159549    -2.85231398     8.08653663    -0.00041780    -0.00005451     0.20261843
O       3.80579552    -0.95073388     3.21844687    -0.05624470    -0.00007816    -0.02421234
O      -0.00262043     2.85240779     3.21845591     0.05632029    -0.00004551    -0.02420952
O      -0.00261605    -0.95071958     3.21848338     0.05631849    -0.00008382    -0.02420977
O       3.91187597     4.75385475     6.55834738    -0.13363159    -0.00007173    -0.13111885
O       5.70471744     6.65549207     1.59938614    -0.00007302    -0.00001003    -0.11284499
O       3.91180675     0.95070641     6.55837100    -0.13318936    -0.00007096    -0.13141504
O       5.70472158     2.85230651     1.59941375    -0.00007251     0.00010284    -0.11284525
O      -0.10869652     4.75387048     6.55838725     0.13330558    -0.00007688    -0.13178297
O       1.90156607     6.65548056     1.65722550     0.00000926    -0.00006813     0.10649230
O      -0.10868631     0.95072222     6.55841207     0.13323539    -0.00007662    -0.13169144
O       1.90157030     2.85229281     1.65725309     0.00000874     0.00011544     0.10649230
