# total energy = -19960.60549223 eV

CRYSTAL
PRIMVEC
        5.93400000     0.00000000     0.00000000
        0.00000000     9.29699974     0.00000000
        0.00000000     0.00000000     4.64899994
PRIMCOORD
24 1
Ti      4.48057299     6.93051099     2.30508001    -0.21745550     1.79078919     0.51374697
Ti      4.42399002     2.29173300     2.29989000    -0.66125995    -0.96932553     0.45438737
Ti      1.49022801     6.94360400     2.35048300     0.30217184     1.28724359    -0.15621206
Ti      1.43058000     2.35063302     2.32538502     0.43209796    -0.78250345     0.20875334
Ti      3.01889901     4.66148900     4.64539699    -0.35974863    -0.70247912    -0.26010189
Ti      2.93111400     0.09964402     0.00523298     0.61683127    -0.81103320    -0.45061196
Ti      0.01376501     4.58675399     4.62456100     0.59710216    -0.48989612    -0.70047572
Ti      0.01480802     0.00260699     0.02214803    -0.75411924    -0.39387952    -0.61926997
O       4.55285997     5.38280998     0.86153501    -1.14588814     1.63839470     1.50953199
O       4.39904598     0.79856498     0.93171402     0.77220772     1.16576920     0.80661784
O       1.41732300     5.56538698     0.88989902     0.69982214    -0.54299096     0.37169090
O       1.51858101     0.94553301     0.91016402    -0.66597844     0.15080374     0.49448991
O       4.46091098     8.39650501     3.78825700     0.41088018    -0.30379009    -0.74183450
O       4.45707201     3.75906902     3.63181702    -0.28597157     0.43253427     0.59462593
O       1.49631397     8.49588201     3.70989501    -0.48064529    -1.02353804    -0.10098320
O       1.51738798     3.78047900     3.61587101     0.00392608     0.56087634     0.71694004
O       3.01715399     6.16884902     3.32534402    -0.34822289    -0.46797026    -0.43759112
O       2.89617799     1.50560601     3.28006502     0.19027276    -0.17338498    -0.34701729
O       5.92540399     6.11453099     3.33495398     0.11395005    -0.16990704    -0.92236946
O       0.02243299     1.41556602     3.30529497    -0.12304970     0.54733073    -0.44243431
O       2.95680498     7.92308500     1.30528998    -0.05655966    -2.04144844     1.82741534
O       3.01862098     3.19178301     1.39594202    -0.72601013     0.76431109    -0.78846482
O       0.00189303     7.95131099     1.58101901     0.13084143    -0.68129477    -0.75583416
O       5.79507102     3.05504203     1.35181599     1.55480631     1.21538817    -0.77499891
