# total energy = -19072.74675718 eV

CRYSTAL
PRIMVEC
        5.93400000     0.00000000     0.00000000
        0.00000000     9.29699974     0.00000000
        0.00000000     0.00000000     4.64899994
PRIMCOORD
22 1
Ti      4.51156002     6.77610098     2.49297202    -1.53017744     0.37791117    -0.38525193
Ti      4.35747001     2.21828002     2.38401299     1.38766860     1.16854394    -0.87094661
Ti      1.40771198     7.05969199     2.41860002     1.32165473     1.11919648    -0.27225524
Ti      1.65273602     2.38673699     2.05449199    -3.38375376    -0.60993634     0.96632377
Ti      2.98368798     4.77028102     4.57455698     0.05474601     0.37058455     0.42725425
Ti      2.96329899     9.12475800     4.63125801     1.14025074    -0.74555026    -0.32795564
Ti      5.83064401     4.52802801     4.42015798     0.80249327    -0.52276949     1.03922640
Ti      0.03611100     9.20125301     0.22714902    -1.27282149     0.14520516    -0.72504108
O       4.51537898     5.52833801     0.82086499     0.00128401     0.52174310     1.92203737
O       4.54092798     1.01861398     1.01787498    -0.22352022    -1.89227581    -1.23509800
O       1.58691700     0.80837598     0.83309401    -0.49710935     2.01845943     1.48943984
O       4.53751002     8.35290700     3.75443702    -0.07082055     1.02425743     0.31714312
O       4.32708200     4.31943798     3.37021603     0.24789403    -1.53996924    -0.67811457
O       1.47073799     8.54999298     3.64523003    -0.79931745     0.66456382     0.13826010
O       1.59171601     3.93075999     3.59085500    -1.06160452    -0.45681912     0.78580475
O       2.74513302     6.40359798     3.50897397     1.15720357    -1.43457325     0.11307716
O       3.02982900     1.34924398     3.20094101    -1.45144844     0.15549652     0.83541652
O       0.12294999     6.34642800     3.57339802    -0.53492952    -1.78605913    -0.66866705
O       2.86139601     7.84100199     1.43278302     0.62855422    -0.20007458    -0.66260850
O       2.99059998     3.32157998     1.50279200     1.37836892     1.27240960    -2.12266422
O       5.78097798     7.93023402     1.48002299     0.40280434    -1.34334765     0.57668451
O       5.85349600     2.96096701     1.42398598     2.30258032     1.69300290    -0.66206522
