# total energy = -19960.39974169 eV

CRYSTAL
PRIMVEC
        5.93400000     0.00000000     0.00000000
        0.00000000     9.29699974     0.00000000
        0.00000000     0.00000000     4.64899994
PRIMCOORD
24 1
Ti      4.46405202     6.89795801     2.35256399    -0.79193041     1.52652211    -0.84652009
Ti      4.44432397     2.36447302     2.31729602     0.39740271    -1.90109624     0.10089681
Ti      1.43956199     6.95250798     2.30692002     0.70872048     1.25150241    -0.55674791
Ti      1.53845601     2.43927201     2.34220899    -0.14985680    -2.07484323     0.02348498
Ti      2.99154599     4.71289201     4.54708501    -0.28441579    -0.82538638     0.65656460
Ti      2.95188897     9.20046802     0.01119803     0.21726421     1.57202319     0.38910781
Ti      5.91617498     4.65323903     4.63924599     0.37369507    -0.95584472     0.71029554
Ti      0.01858502     0.02865802     0.03163300    -0.16064747     1.46881187     0.05496789
O       4.42812501     5.64022101     0.74528800    -0.18373984     0.28503697     0.88912663
O       4.32860799     0.91501398     0.91341698     1.68309823     0.42108900     0.32672048
O       1.48044702     5.62685801     0.85577201     0.04679692    -0.51996955    -0.45053766
O       1.54394099     0.88250102     0.94006201    -1.06695087     0.05230963    -0.36417016
O       4.48690200     8.44164198     3.87115998     0.35997514    -1.81512906    -1.74377938
O       4.46479001     3.69437302     3.81905501    -0.29124979     0.28077023     0.00487481
O       1.56476400     8.31412598     3.75663602    -1.57437472    -0.61765531    -0.10225512
O       1.43663299     3.60915802     3.83735402     0.41972401     1.49949852     0.35749429
O       2.93242298     5.93491098     3.03783599     0.28364215    -0.43483181     1.03214455
O       2.85695002     1.34339598     3.27605502     0.52010454     1.27548824    -0.97601966
O       5.86256298     5.97646198     3.22810701     0.62602940     0.55301698    -0.72177860
O       0.04583501     1.45210301     3.14756401    -0.22773452    -0.91541591     1.08207128
O       2.98124302     7.93882701     1.57678098    -0.13024519    -0.89976328    -0.20795219
O       3.10833002     3.36212898     1.48428302    -1.38349775     0.04426387    -0.18156135
O       5.89701898     7.83254499     1.35030498     0.16705003    -0.45044021     1.28295910
O       5.88880498     3.22994701     1.46903399     0.44114002     1.18004243    -0.75938666
