# total energy = -19074.64374606 eV

CRYSTAL
PRIMVEC
        7.60600008     0.00000000     0.00000000
        0.00000000     7.60600008     0.00000000
       -1.89786986    -1.89786986     4.85670466
PRIMCOORD
22 1
Ti      3.63311599     6.66394398     1.43559401    -0.15083382     0.10687874    -2.00449910
Ti      3.86883202     2.95835102     1.21846602     0.46156075    -0.23691927     1.34427659
Ti      0.02223799     6.52940601     0.89836998     0.27400385     0.17868994     3.01462215
Ti      0.16726399     2.75933302     1.03680900    -0.52504234    -0.19270168     0.48691750
Ti      5.84307920     2.82822120     3.46336080    -0.38947522    -0.27004281    -0.60488850
Ti      5.94927523    -0.93836176     3.49685883    -0.15617349     0.30097268     0.99506949
Ti      1.90677920     2.93889820     3.68486683     0.14234944    -0.82552548    -0.49272048
Ti      1.33054920    -0.96646377     4.05273080     1.57405719     0.31381174    -1.77506560
O       3.43215098     4.79774098     0.96486401     0.75590692    -0.24115620    -0.35768455
O       4.08161298     1.01846898     0.93351402    -1.35931575    -0.76918076    -0.02646335
O       0.25756300     4.63851001     0.76331501     0.02286714     1.51107466    -0.76395525
O       7.33538302     0.94359897     0.52302800     0.76531305    -0.50664352     0.61633428
O       5.75860923     4.69745422     3.99080283     0.27906507     1.01544703    -1.98456430
O       5.73476122     0.98840420     3.83483381     0.60880300    -1.35275815     0.00273308
O       1.73853523     4.75967223     4.29619583    -0.20243357     1.25970038    -0.34148788
O       1.99558123     1.06452323     4.18763380    -0.75140055    -0.78169690    -0.62528635
O       3.93642521     3.03589121     3.25682281    -0.99316404    -0.12397350    -0.32610085
O       0.05930622     3.01372820     3.06997779     1.44931545    -0.39888855     0.82579159
O       5.51796598     6.48953599     1.67192002     1.68771516    -0.23587206     0.55777173
O       5.94983701     2.97330599     1.47507000    -2.54502104     0.03206758     0.68948605
O       1.83065298     6.64665502     1.95899698    -1.34728195     0.56812299     1.13100402
O       1.96967800     2.47274300     1.73114897     0.39918474     0.64859289    -0.36129052
