# total energy = -19932.45996455 eV

CRYSTAL
PRIMVEC
        6.08583663     0.00000000     0.00000000
        1.28263976     6.34890327     0.00000000
        0.00000000     0.00000000    10.94772403
PRIMCOORD
24 1
Ti      2.96591410     3.76235420     4.06152767    -0.06574416    -1.78996875     0.80248196
Ti      4.40256199     2.58654922     6.88619679     0.06574416     1.78996875    -0.80248196
Ti      5.77118981     2.58655150     1.41229082    -0.07180605    -0.23958731    -0.23647550
Ti      1.59728630     3.76235217     9.53543377     0.07180605     0.23958731     0.23647550
Ti      2.32459437     0.58790280     1.41233471    -0.06574416    -1.78996875    -0.80248196
Ti      5.04388174     5.76100081     9.53538987     0.06574416     1.78996875     0.80248196
Ti      0.95596647     0.58790034     6.88615289     0.07180605     0.23958731    -0.23647550
Ti      6.41250964     5.76100327     4.06157157    -0.07180605    -0.23958731     0.23647550
O       2.37784487     2.23555680     5.58653994     1.70860616     1.88899893    -0.52772606
O       4.99063122     4.11334663     5.36118452    -1.70860616    -1.88899893     0.52772606
O       1.56839257     2.23558237     0.11271297    -0.83999951     0.32477030     0.76435377
O       5.80008359     4.11332111    10.83501118     0.83999951    -0.32477030    -0.76435377
O       4.34931147     0.93889504     0.11267743    -1.70860616    -1.88899893    -0.52772606
O       3.01916462     5.41000839    10.83504672     1.70860616     1.88899893     0.52772606
O       5.15876384     0.93886953     5.58657548     0.83999951    -0.32477030     0.76435377
O       2.20971219     5.41003397     5.36114898    -0.83999951     0.32477030    -0.76435377
O       1.00128666     3.86176280     2.95725349     0.43676580     1.16294484     1.34093030
O       6.36718942     2.48714063     7.99047097    -0.43676580    -1.16294484    -1.34093030
O       3.76649635     2.48708133     2.51664357     0.69393046     1.34573569     0.51396397
O       3.60197974     3.86182210     8.43108071    -0.69393046    -1.34573569    -0.51396397
O       0.35996692     0.68731121     2.51660859     0.43676580     1.16294484    -1.34093030
O       7.00850918     5.66159228     8.43111569    -0.43676580    -1.16294484     1.34093030
O       2.96065998     0.68737045     7.99050589    -0.69393046    -1.34573569     0.51396397
O       4.40781611     5.66153298     2.95721851     0.69393046     1.34573569    -0.51396397
