# total energy = -19946.17238066 eV

CRYSTAL
PRIMVEC
        5.22547524     0.00000000     0.00000000
        2.13905751     5.13366889     0.00000000
        0.00000000     0.00000000     9.55294219
PRIMCOORD
24 1
Ti      3.16158698     3.04220753     3.54407342     2.53713443    -3.49187332     1.18652418
Ti      4.20294584     2.09146151     6.00886888    -2.53713443     3.49187332    -1.18652418
Ti      5.37808964     2.09146325     1.23235954    -5.35104642     0.42940961     1.48814735
Ti      1.98644322     3.04220599     8.32058281     5.35104642    -0.42940961    -1.48814735
Ti      2.09205833     0.47537306     1.23239784     2.53711540    -3.49237777    -1.19011781
Ti      5.27247452     4.65829613     8.32054451    -2.53711540     3.49237777     1.19011781
Ti      0.91691445     0.47537117     6.00883053     5.35093895    -0.42968061     1.48404361
Ti      6.44761841     4.65829802     3.54411171    -5.35093895     0.42968061    -1.48404361
O       2.40709440     1.80765214     4.87479329     0.22150602     1.15723365    -1.13125779
O       4.95743837     3.32601691     4.67814900    -0.22150602    -1.15723365     1.13125779
O       1.71207944     1.80767288     0.09835290     1.03003393    -0.70848008     0.02354823
O       5.65245346     3.32599624     9.45458908    -1.03003393     0.70848008    -0.02354823
O       3.88790970     0.75918234     0.09832188    -0.22153893    -1.15729767    -1.13129275
O       3.47662313     4.37448670     9.45462010     0.22153893     1.15729767     1.13129275
O       4.58292473     0.75916163     4.87482425    -1.02996400     0.70850168     0.02376446
O       2.78160801     4.37450747     4.67811799     1.02996400    -0.70850168    -0.02376446
O       1.49094966     3.12258858     2.58048803     0.27561105    -0.31891513    -0.31389376
O       5.87358312     2.01108046     6.97245427    -0.27561105     0.31891513     0.31389376
O       3.64054315     2.01103269     2.19601351     1.83888117    -0.65285527    -1.55489373
O       3.72398962     3.12263636     7.35692863    -1.83888117     0.65285527     1.55489373
O       0.42142098     0.55575396     2.19598296     0.27568870    -0.31871947     0.31368190
O       6.94311185     4.57791507     7.35695912    -0.27568870     0.31871947    -0.31368190
O       2.65446095     0.55580179     6.97248470    -1.83904444     0.65261744    -1.55460936
O       4.71007182     4.57786726     2.58045754     1.83904444    -0.65261744     1.55460936
