# total energy = -19892.76181321 eV

CRYSTAL
PRIMVEC
        8.64609442     0.00000000     0.00000000
        0.00003042     4.95495497     0.00000000
        0.00000000     0.00000000    13.08081821
PRIMCOORD
24 1
Ti      3.13381152     2.93630188     4.85289044     0.46173816    -0.57419054     2.56588554
Ti      5.51231354     2.01865350     8.22792832    -0.46173816     0.57419054    -2.56588554
Ti      7.45671055     2.01865525     1.68746672     0.44650257     0.57461554    -2.56718678
Ti      1.18941450     2.93630027    11.39335217    -0.44650257    -0.57461554     2.56718678
Ti      3.13379644     0.45882447     1.68751914     0.46085010    -0.57197631    -2.56623804
Ti      5.51232861     4.49613105    11.39329974    -0.46085010     0.57197631     2.56623804
Ti      1.18939942     0.45882251     8.22787589    -0.44642184    -0.57216297    -2.56740764
Ti      7.45672563     4.49613294     4.85294286     0.44642184     0.57216297     2.56740764
O       2.73655427     1.74472396     6.67504162     0.67855988     1.45066914    -2.26373813
O       5.90957078     3.21023135     6.40577713    -0.67855988    -1.45066914     2.26373813
O       1.58656506     1.74474392     0.13467434    -0.67895686     1.45049636    -2.26322108
O       7.05956006     3.21021146    12.94614401     0.67895686    -1.45049636     2.26322108
O       5.90955570     0.73275387     0.13463190    -0.68014548    -1.45091673    -2.26398779
O       2.73656935     4.22220151    12.94618644     0.68014548     1.45091673     2.26398779
O       7.05954498     0.73273390     6.67508405     0.67977242    -1.45170503    -2.26547465
O       1.58657993     4.22222147     6.40573463    -0.67977242     1.45170503     2.26547465
O       0.31415110     3.01388453     3.53345546    -2.30780300     0.74111228     0.11999240
O       8.33197395     1.94107085     9.54736330     2.30780300    -0.74111228    -0.11999240
O       4.63720898     1.94102452     3.00699547    -2.30741451    -0.74122001    -0.11931337
O       4.00891607     3.01393086    10.07382301     2.30741451     0.74122001     0.11931337
O       0.31413602     0.53640698     3.00695372    -2.30780017     0.74076055    -0.11886034
O       8.33198903     4.41854840    10.07386476     2.30780017    -0.74076055     0.11886034
O       4.00890099     0.53645331     9.54740498     2.30770633     0.74052864    -0.11916810
O       4.63722406     4.41850207     3.53341370    -2.30770633    -0.74052864     0.11916810
