# total energy = -39031.63503059 eV

CRYSTAL
PRIMVEC
        5.93200024     0.00000000     0.00000000
        0.00000000     9.29399984     0.00000000
        0.00000000     0.00000000     9.29399984
PRIMCOORD
46 1
Ti      4.37361499     7.02944300     6.92469898     0.34521546    -0.27652353     0.94498155
Ti      4.52147601     6.95434598     2.33433902    -1.45921677    -0.86832305     0.25493834
Ti      4.46521700     2.03935900     7.15355899    -2.56965530     0.75855696    -1.24884723
Ti      4.68894399     2.03580298     2.71548502     0.54531807     0.23924227    -1.62687641
Ti      1.42378298     7.08726800     6.91650901    -0.50448765    -0.49139662     0.79263489
Ti      1.45194902     6.96731399     2.28534101     1.28583205    -0.89386543     0.62572781
Ti      1.32333302     2.41546200     6.82716801     3.44543738    -0.45928790    -0.54929480
Ti      1.58203302     2.76746800     2.08735601    -0.30316480    -1.01168036     0.34920248
Ti      3.10180298     4.69444399     4.52730601    -1.45385242    -0.36106735     1.10266428
Ti      2.96795199     4.96680602     9.20234697     0.16554388    -0.57902036     0.79625140
Ti      2.86712298     9.24630800     4.86717200     0.33774101     0.29391294    -0.66562826
Ti      3.03144998     0.04355600     9.27794301    -2.36758760    -0.44408856    -0.19240035
Ti      0.01014697     4.65686098     4.69743898     1.58455013    -0.11584110    -1.20018934
Ti      0.00093701     4.51214598     8.94213502    -0.40399785     1.05061948     1.26006779
Ti      5.88474403     9.06260603     4.64246699     0.20344607     0.05789998    -0.89265290
Ti      5.93076202     9.27452400     0.21350498     1.79218170     1.00392000    -1.00862795
O       4.64037399     5.64452100     5.50771799    -0.81359993    -0.35023966     0.36088454
O       4.42989998     5.43794200     1.00890500    -0.27661815    -0.30779973    -1.20657057
O       4.36663202     0.88894899     5.52303598     0.98763077     0.88625265     0.19665064
O       4.38929002     0.52522001     1.22396100     0.60038624     1.33041345     0.16114318
O       1.83561401     5.75793702     5.59600603    -1.59065984    -0.31731256    -0.53502825
O       1.33411501     5.63336298     0.74159101     0.75224644    -1.82968356     0.22782888
O       1.30853199     0.74692898     5.49719800    -0.02817930     2.16690109     0.37475719
O       1.55865301     0.94940701     0.96960301    -0.33499970     0.05850419     0.20049393
O       4.32889602     8.27479303     8.49637002     1.19950337     0.62859228    -0.28929729
O       4.32335400     8.26309800     3.97512097     0.32585068     0.23461865    -2.04224522
O       4.34095301     3.76807498     8.26749302     0.11583364    -0.27119903     0.52282631
O       4.82400802     3.72458100     3.51992900    -0.86679762     0.70992196     2.05583068
O       1.50593701     8.40030699     8.48702501    -0.75495690    -0.40742770    -0.11624759
O       1.58789799     8.11474898     3.96296202    -1.17815807     0.86973767    -1.25175772
O       1.55658102     3.62216599     8.26439898    -0.96512564     1.35717530     1.34336976
O       1.52431502     4.22272698     3.44930400     0.57542878    -2.25152899    -0.22828114
O       2.85938398     6.06884601     7.79027299     0.77604947     0.30958690     0.33149220
O       3.19147001     6.06056798     3.29248798    -0.38776261     0.04736539    -0.54210830
O       2.74396999     1.26453900     7.72141899     1.89341018     0.68411913     0.71825490
O       2.98273498     1.85660198     3.14155499    -1.84521560    -0.52558536     0.18493438
O       5.79833801     6.20489901     7.92451102     0.74353991    -1.54006848    -0.18893759
O       0.00420701     6.09278900     3.25746899    -0.36011141     0.69895080    -0.04609810
O       5.88462602     1.38709200     8.01647801    -0.16560199    -0.18338889    -0.21595141
O       2.93513999     8.15377299     6.35142698    -0.11488285    -0.40619228    -0.54700266
O       2.90607498     7.67025099     1.48931301     0.66387734     1.29535928    -0.86013923
O       2.77673400     3.34438001     5.93947598    -0.46009111    -1.20457796    -0.09200130
O       5.81750899     7.94212702     6.06895301     0.37895169    -0.69486865     1.21173797
O       0.09769998     7.82754199     1.32145698    -0.33588878    -0.80077346     1.77114235
O       5.73973401     3.08291300     6.04364299     0.12682974     0.94061016    -0.39378414
O       5.77123101     2.82203200     1.31973901     0.69580788     0.96948006     0.15215229
