# total energy = -19899.92949318 eV

CRYSTAL
PRIMVEC
        6.39334833     0.00000000     0.00000000
        0.00002140     3.27621953     0.00000000
        0.00000000     0.00000000     9.65933338
PRIMCOORD
24 1
Ti      2.31729406     1.94148472     3.58354379    -1.34736783     2.00002512    -3.36852126
Ti      4.07607582     1.33473495     6.07578969     1.34736783    -2.00002512     3.36852126
Ti      5.51385878     1.33473612     1.24608436    -1.34541662    -2.00034651     3.37185212
Ti      0.87951114     1.94148370     8.41324927     1.34541662     2.00034651    -3.37185212
Ti      2.31728340     0.30337500     1.24612309    -1.34780414     1.99974230     3.36848552
Ti      4.07608652     2.97284477     8.41321053     1.34780414    -1.99974230    -3.36848552
Ti      0.87950044     0.30337374     6.07575095     1.34582594     1.99976853     3.37205190
Ti      5.51386943     2.97284603     3.58358253    -1.34582594    -1.99976853    -3.37205190
O       2.02354273     1.15361264     4.92908390     6.60436403    -2.92305176     5.93505446
O       4.36982720     2.12260704     4.73024958    -6.60436403     2.92305176    -5.93505446
O       1.17318406     1.15362582     0.09944824    -6.60487774    -2.92340374     5.93526478
O       5.22018591     2.12259385     9.55988495     6.60487774     2.92340374    -5.93526478
O       4.36981650     0.48449727     0.09941692    -6.60454144     2.92342791     5.93392343
O       2.02355338     2.79172240     9.55991632     6.60454144    -2.92342791    -5.93392343
O       5.22017526     0.48448409     4.92911523     6.60548375     2.92417147     5.93545016
O       1.17319457     2.79173564     4.73021826    -6.60548375    -2.92417147    -5.93545016
O       0.23229824     1.99278247     2.60922692     4.35097562    -1.35107382     1.44042508
O       6.16107164     1.28343726     7.05010656    -4.35097562     1.35107382    -1.44042508
O       3.42898041     1.28340667     2.22047052     4.35288878     1.35161632    -1.44140956
O       2.96438947     1.99281305     7.43886282    -4.35288878    -1.35161632     1.44140956
O       0.23228759     0.35467265     2.22043968     4.35048608    -1.35121060    -1.43997154
O       6.16108234     2.92154702     7.43889366    -4.35048608     1.35121060     1.43997154
O       2.96437882     0.35470324     7.05013736    -4.35224472    -1.35134173    -1.44100847
O       3.42899111     2.92151644     2.60919608     4.35224472     1.35134173     1.44100847
