# total energy = -4987.65694302 eV

CRYSTAL
PRIMVEC
        3.56445197     0.00000000     0.00000000
        0.87739564     3.45477854     0.00000000
       -2.22095626    -1.72741452     4.58555596
PRIMCOORD
6 1
Ti      0.65793098     2.59121621     1.14638892     0.00056539    -0.00073482    -0.00084795
Ti      1.56296053    -0.86385205     3.43916675    -0.00056539     0.00073482     0.00084795
O       0.21938629     0.86368972     0.74694954     0.00044274     0.00134726     0.38076946
O       2.00150507     0.86367436     3.83860613    -0.00044274    -0.00134726    -0.38076946
O      -0.21936081    -0.86366991     3.03972738     0.00136628     0.00045714     0.38226636
O       2.44025216     2.59103393     1.54582829    -0.00136628    -0.00045714    -0.38226636
