# total energy = -39030.18257456 eV

CRYSTAL
PRIMVEC
        5.93200024     0.00000000     0.00000000
        0.00000000     9.29399984     0.00000000
        0.00000000     0.00000000     9.29399984
PRIMCOORD
46 1
Ti      4.47381597     7.11091598     6.95944899    -1.04758249     0.19300739     1.64792450
Ti      4.39703802     6.59708698     2.24502199    -2.34731136     1.91231062     0.53242527
Ti      4.47890301     2.20042003     6.93835202    -0.66418664     0.76851690     0.81146668
Ti      4.43131002     2.80197100     2.13828901    -2.12901896     0.48689821     0.18723783
Ti      1.29969801     6.98237999     7.04667402     2.28480987     0.16027595     0.48503853
Ti      1.43304798     6.91966899     2.27650100     1.85738875     0.58997326    -0.93427393
Ti      1.36224798     2.46485598     6.86633502     1.52469122    -1.75459755    -1.51173569
Ti      1.38588400     2.14350400     2.87189600    -0.49497637    -0.30581921    -0.31555289
Ti      3.05733802     4.74095799     4.86038800     2.01123308     1.10841867    -0.78932896
Ti      2.87472302     4.63206998     9.06327602    -0.14084945     0.64160798    -0.75306894
Ti      2.97839800     9.00783602     4.55948803     0.09558594    -1.07058590     0.63120477
Ti      2.95739300     0.33584599     9.27600199     2.07287453    -1.67500003     0.97182850
Ti      0.18166602     4.71970702     4.76082499    -1.97924469     0.40904698    -0.09162875
Ti      5.91849601     4.54081500     9.16120900    -0.08221183    -0.06922595    -0.09267339
Ti      5.87942997     9.17559399     4.68658598     0.87996938    -0.56137564    -1.16499170
Ti      0.14062600     9.17278200     0.05883398    -2.16727930     0.98283540    -0.00284081
O       4.67443400     5.76548599     5.72440200    -0.68863707    -1.50840713    -2.45897261
O       4.06411102     4.94748301     1.18113098     1.93700659     0.19368384     0.81419643
O       4.41274903     0.76486899     5.22536102    -0.62563422     2.70618504     1.63135193
O       4.78423701     1.08653298     0.70374102    -2.36506432     0.30336072     1.06187706
O       1.61907098     5.78945698     5.45714103    -1.89045752     0.45552380     1.31135309
O       1.31285097     5.59159099     0.69447598     0.55070839    -0.81836933     1.30682074
O       1.56352499     1.09151201     4.99665802    -0.97018685     0.33402936     0.59931100
O       1.57422199     0.84609600     1.13849802    -0.20568910    -0.01850244    -0.75887424
O       4.44482701     8.47717099     8.33050602     0.66047140     0.01091845     0.60508313
O       4.43701498     7.96992502     4.00390499     0.23069309     1.13527642    -1.51051775
O       4.48059098     3.47895899     8.42539899    -0.96124430     0.37969603     0.61306049
O       4.50916703     3.90585300     3.98553598     1.16773070    -0.74924391    -2.22365025
O       1.58271301     8.66535499     8.23605598    -0.29344757    -1.37178792     0.66015592
O       1.43932502     8.43050401     3.57049602    -0.16526620    -0.33179507    -0.30153395
O       1.51667597     3.72525401     8.07973501    -0.93758885     1.19262284     3.01099278
O       1.66279398     3.61540501     4.07511399    -1.64947848     0.44136756    -1.07791046
O       2.67504900     6.03871201     7.97675500     1.63239966     0.35089375    -0.28926644
O       2.85177298     6.04682202     3.34859199     0.49983730     0.24402683    -2.15670050
O       2.87443399     1.46300502     7.85170899     0.62836525     1.04866569    -1.41225273
O       3.14218699     1.78514601     2.87076600     0.38286697    -1.72617940     0.85033227
O       5.75394702     5.85610802     7.77427803     1.36243707     0.67699100     1.60596897
O       0.08154198     6.06792598     3.16919201    -0.25448840    -1.18562687     0.54499643
O       0.08075700     1.49020399     7.77571501    -0.35548908    -0.80940209    -0.96026291
O       2.98652098     7.85529099     6.32897298    -2.18413958     1.78352016    -3.08791481
O       3.15224300     7.86060700     1.50339199     0.10536153    -1.33144344    -0.05731428
O       3.06260503     3.56937501     6.14075998     0.25622647    -3.19394920     2.16939069
O       0.00953101     8.00738500     6.08321899     0.57452144     0.01259250     0.81141860
O       5.92186401     7.76786498     1.19449900    -0.12623710    -1.15692203     1.44066934
O       5.83255900     3.37643100     6.22353002    -0.20247368     0.06440821    -1.85933122
O       0.11930502     3.03700698     1.63747000     4.21300426     1.05157927    -0.49350852
