# total energy = -4990.64922977 eV

CRYSTAL
PRIMVEC
        3.80387953     0.00000000     0.00000000
       -0.00000212     3.80387953     0.00000000
       -1.90196326    -1.90196431     4.85101071
PRIMCOORD
6 1
Ti     -0.00014613     2.85304197     1.21275284    -0.00004911     0.00004911    -0.00000000
Ti      1.90206045    -0.95112659     3.63825819     0.00004911    -0.00004911    -0.00000000
O       0.00004315     0.95096652     0.79111240    -0.00000977    -0.00005836    -0.00300819
O       1.90187101     0.95094870     4.05989864     0.00000977     0.00005836     0.00300819
O      -0.00001500    -0.95093837     3.21661770    -0.00005836    -0.00000977    -0.00300819
O       1.90192922     2.85285365     1.63439328     0.00005836     0.00000977     0.00300819
