# total energy = -4985.69954811 eV

CRYSTAL
PRIMVEC
        4.05740016     0.00000000     0.00000000
        1.90935775     3.58006272     0.00000000
       -2.98341708    -1.79005423     5.35844397
PRIMCOORD
6 1
Ti      1.43192258     2.68518491     1.33961064     0.00060909    -0.00060909     0.00000000
Ti      1.55141811    -0.89517656     4.01883268    -0.00060909     0.00060909     0.00000000
O       0.47738148     0.89501112     0.87284662    -0.00033116    -0.00052193    -2.41791002
O       2.50595903     0.89499722     4.48559674     0.00033116     0.00052193     2.41791002
O      -0.47734292    -0.89498794     3.55206861    -0.00052193    -0.00033116    -2.41791002
O       3.46068336     2.68499618     1.80637470     0.00052193     0.00033116     2.41791002
