# total energy = -4989.46232527 eV

CRYSTAL
PRIMVEC
        4.01733340     0.00000000     0.00000000
        0.40072219     3.99729776     0.00000000
       -2.20906343    -1.99868112     5.13344820
PRIMCOORD
6 1
Ti      0.30038771     2.99812538     1.28336180     0.00031547    -0.00031547     0.00000000
Ti      1.90860411    -0.99950905     3.85008579    -0.00031547     0.00031547     0.00000000
O       0.10022290     0.99931812     0.83619668    -0.00052656    -0.00134160    -0.74965888
O       2.10876880     0.99929810     4.29725102     0.00052656     0.00134160     0.74965888
O      -0.10020066    -0.99929800     3.40292066    -0.00134160    -0.00052656    -0.74965888
O       2.30919230     2.99791417     1.73052703     0.00134160     0.00052656     0.74965888
