# total energy = -4910.83881413 eV

CRYSTAL
PRIMVEC
        5.03156498     0.00000000     0.00000000
       -0.00000657     2.15638514     0.00000000
       -2.51581135    -1.07827058     5.46037065
PRIMCOORD
6 1
Ti     -0.00021500     1.61735581     1.36509261    -0.04781148    -0.03297518    80.39277079
Ti      2.51596180    -0.53924120     4.09527794     0.04781148     0.03297518   -80.39277079
O       0.00005346     0.53908307     0.88944975     0.04717847     0.03402651   -72.04311943
O       2.51569320     0.53903149     4.57092085    -0.04717847    -0.03402651    72.04311943
O      -0.00002104    -0.53912210     3.61963508    -0.00049160    -0.00075513     0.04785159
O       2.51576765     1.61723661     1.84073552     0.00049160     0.00075513    -0.04785159
