# total energy = -4930.35217199 eV

CRYSTAL
PRIMVEC
        4.80052393     0.00000000     0.00000000
       -0.00000663     2.31136323     0.00000000
       -2.40028886    -1.15574619     5.17170942
PRIMCOORD
6 1
Ti     -0.00020508     1.73359906     1.29292708    -0.03592167    -0.02987469    57.02440606
Ti      2.40043347    -0.57798217     3.87878169     0.03592167     0.02987469   -57.02440606
O       0.00005108     0.57782972     0.84242908     0.03591524     0.03009914   -46.80079673
O       2.40017715     0.57778707     4.32927975    -0.03591524    -0.03009914    46.80079673
O      -0.00001961    -0.57785600     3.42828369    -0.00105672    -0.00083201    -0.20235052
O       2.40024780     1.73347279     1.74342513     0.00105672     0.00083201     0.20235052
