# total energy = -19074.79408480 eV

CRYSTAL
PRIMVEC
        5.17600016     0.00000000     0.00000000
        0.00000000     5.50899976     0.00000000
        0.00000000     0.00000000     9.26300011
PRIMCOORD
22 1
Ti      1.86170298     3.43680298     3.29710903     0.26605271     0.16155250    -0.31858397
Ti      3.42120199     2.23978700     5.94294701     0.85734187     0.59869471    -0.59532116
Ti      4.40717600     2.21154100     1.19136098    -0.66041149     1.36031154    -0.78332415
Ti      0.71257299     3.14944000     8.05425502     0.27472196     2.37164300     0.14530672
Ti      1.82740198     0.51024498     1.32812700     0.18979762     0.28530385    -1.75648911
Ti      3.20042702     4.98270102     8.12033301     0.35895056     0.12880126     0.90633760
Ti      0.66832102     0.29918602     6.03321698     0.33206067     1.02592454    -1.43888525
Ti      4.48957900     5.05053398     3.37671898    -0.21647000    -1.07897824     1.19925141
O       3.51341499     3.32226601     4.30827197    -0.21762314     0.12236013     1.26948806
O       0.90868502     1.91779498     9.24994298     0.10392171    -1.92785963     1.28858853
O       4.30397902     3.66537702     9.09458802     0.13825521    -0.67481173    -0.82256254
O       3.48177903     0.69500002     0.30063200     0.61477388     1.54558016    -0.70039010
O       1.73384799     4.65250098     9.20558998    -1.63388061    -0.13819736    -0.24029925
O       4.18408201     0.70438001     4.83943200     0.35344814    -0.56244188    -0.17813483
O       1.05021501     4.81124802     4.37021598    -0.66120108     0.00193938     1.39760386
O       0.27501702     3.59937899     2.16793098    -0.50777455    -0.66292192     1.34390789
O       0.09300798     2.24299101     6.50190303    -0.11113135    -1.00895113    -0.06942341
O       2.67068699     2.11927900     2.14117001     0.13596590    -0.55214564    -0.25926371
O       2.43066399     3.60298200     7.10232600    -0.50945014    -1.49321602    -1.49634377
O       0.01621500     0.78182600     2.14448202     1.21100007    -0.20154037     0.74802932
O       2.56372899     0.77811599     6.83763398    -1.42243276     0.15399062    -0.33098543
O       2.72205502     4.78457098     2.37711898     1.10408456     0.54496172     0.69149305
