# total energy = -19959.10474346 eV

CRYSTAL
PRIMVEC
        5.65192190     0.00000000     0.00000000
        0.00002813     5.44246305     0.00000000
        0.00000000     0.00000000     9.65814252
PRIMCOORD
24 1
Ti      2.04856655     3.22519851     3.58310207    -0.00528542    -0.08390695    -0.09340358
Ti      3.60338348     2.21726442     6.07504077     0.00528542     0.08390695     0.09340358
Ti      4.87442900     2.21726630     1.24593077    -0.00403406     0.08424943     0.09369052
Ti      0.77752109     3.22519691     8.41221224     0.00403406    -0.08424943    -0.09369052
Ti      2.04855254     0.50396710     1.24596951    -0.00528542    -0.08390695     0.09340358
Ti      3.60339755     4.93849600     8.41217350     0.00528542     0.08390695    -0.09340358
Ti      0.77750702     0.50396512     6.07500208     0.00403406    -0.08424943     0.09369052
Ti      4.87444301     4.93849804     3.58314082    -0.00403406     0.08424943    -0.09369052
O       1.78887889     1.91638369     4.92847632     0.65574699     0.40419094     0.05874253
O       3.86307120     3.52607924     4.72966652    -0.65574699    -0.40419094    -0.05874253
O       1.03713499     1.91640570     0.09943600    -0.65560275     0.40381118     0.05871245
O       4.61481515     3.52605729     9.55870663     0.65560275    -0.40381118    -0.05871245
O       3.86305713     0.80484767     0.09940468    -0.65574699    -0.40419094     0.05874253
O       1.78889295     4.63761527     9.55873795     0.65574699     0.40419094    -0.05874253
O       4.61480108     0.80482571     4.92850769     0.65560275    -0.40381118     0.05871245
O       1.03714889     4.63763728     4.72963521    -0.65560275     0.40381118    -0.05871245
O       0.20536460     3.31041456     2.60890531     0.10335479    -0.13646598     0.19276853
O       5.44658548     2.13204843     7.04923754    -0.10335479     0.13646598    -0.19276853
O       3.03133056     2.13199778     2.22019682     0.10321852     0.13658142    -0.19274025
O       2.62061947     3.31046521     7.43794591    -0.10321852    -0.13658142     0.19274025
O       0.20535053     0.58918298     2.22016595     0.10335479    -0.13646598    -0.19276853
O       5.44659949     4.85328001     7.43797673    -0.10335479     0.13646598     0.19276853
O       2.62060546     0.58923364     7.04926836    -0.10321852    -0.13658142    -0.19274025
O       3.03134462     4.85322930     2.60887449     0.10321852     0.13658142     0.19274025
