# total energy = -19074.02281234 eV

CRYSTAL
PRIMVEC
        7.60600008     0.00000000     0.00000000
        0.00000000     7.60600008     0.00000000
       -1.89786986    -1.89786986     4.85670466
PRIMCOORD
22 1
Ti      3.67857798     6.87984999     1.07656000    -0.95947512     0.49713172     0.60170804
Ti      3.86942301     2.89288799     1.41092900     0.57998967    -0.76090489     0.00395076
Ti      0.00033799     6.72057700     1.31553200     0.12150987    -0.47106638    -3.42496882
Ti     -0.08410098     2.78069400     1.37496601    -0.30928840    -0.08495751    -0.57558639
Ti      5.95512021     2.87336621     3.92105081     0.34766881     0.00625550    -0.80911464
Ti      5.72463923    -0.80889177     3.47509081    -0.30933648    -0.39466860     2.94065868
Ti      1.89555921     2.75813924     4.02590479     0.37680251    -0.56502198    -4.04716316
Ti      1.86889021    -0.79492678     3.56509179     0.08602914     1.27365042     0.48340408
O       3.77044998     4.88129399     0.87850202    -0.47024286    -0.52818912     2.70230936
O       3.17540101     1.11830002     0.77307002     1.03336711     1.89719202     0.94030291
O      -0.02474602     4.72278398     1.07954302     0.32677499     0.23287056    -0.78601507
O      -0.23628198     0.93321001     0.71871399     0.33500432    -0.09270116     0.09657016
O      -1.54586476     4.70955121     3.96552980    -0.61896915     0.91903885     0.66842562
O       5.55921921     1.02244723     4.17865583    -0.28591398    -1.91425489    -0.25174915
O       1.89029623     5.11044923     4.05237583     0.60577167    -2.63512949    -0.41401410
O       2.49152620     1.02197224     4.22149283    -0.79206359    -1.39091693     0.41662120
O       3.59017522     3.02742622     3.22800684     0.71258870     0.37423295    -0.54139508
O       0.14823821     2.13973424     3.52194882    -0.18474951     2.10222600    -0.83463593
O       5.42357198     6.70612502     1.63322499     1.41081779     0.42719692     0.01989340
O       5.78711098     2.98059599     1.95333399    -1.28064536    -0.64094257    -0.21729429
O       1.88240598     6.51052899     1.62706801     0.71605224     0.79874846     0.02078558
O       0.01626924    -0.82286475     3.05628681    -1.44169213     0.95020963     3.00730633
