# total energy = -4987.72845647 eV

CRYSTAL
PRIMVEC
        3.97542515     0.00000000     0.00000000
        1.52900260     3.66962616     0.00000000
       -2.75225078    -1.83483768     5.18229663
PRIMCOORD
6 1
Ti      1.14664449     2.75236090     1.29557389     0.00063121    -0.00063121     0.00000000
Ti      1.60553260    -0.91757239     3.88672204    -0.00063121     0.00063121     0.00000000
O       0.38229198     0.91740173     0.84415365    -0.00048105    -0.00061604    -1.74878223
O       2.36988493     0.91738670     4.33814233     0.00048105     0.00061604     1.74878223
O      -0.38225764    -0.91737884     3.43530185    -0.00061604    -0.00048105    -1.74878223
O       3.13443449     2.75216724     1.74699418     0.00061604     0.00048105     1.74878223
