# total energy = -39029.38632108 eV

CRYSTAL
PRIMVEC
        7.60600008     0.00000000     0.00000000
        0.00000000     7.60600008     0.00000000
       -3.79573973    -3.79573973     9.71340985
PRIMCOORD
46 1
Ti      2.15627945     4.73944248     6.07255962     1.26125127     1.00066035     0.76570077
Ti      3.49570898     6.99844502     1.12492801     0.36641936    -0.41491013    -0.50885210
Ti      1.97855543     0.64788245     6.07231461     0.41367111    -0.36854618     3.75390585
Ti      3.58773598     2.99291598     1.45739500     2.60511982    -0.93060548    -1.56666681
Ti     -1.63431557     4.81521547     5.99228464    -3.55342787    -3.34033733     0.44610919
Ti     -0.20721200     6.67156699     0.89800601     1.01799088    -0.07253162     1.11912629
Ti     -1.86442454     0.68450845     5.85963663     0.69474987     5.17871534     2.16023654
Ti      0.06995898     2.87197501     1.19931203    -2.38399638     0.77038610    -0.27520404
Ti      3.97318943     0.98611043     8.41587660    -0.68876048    -0.48291326    -0.08025650
Ti      5.31538899     2.67241401     3.71130601     2.27755576    -0.35788844    -0.07978445
Ti      3.79702642    -2.81570754     8.62025962     0.87590858     2.92889742    -1.44950802
Ti      5.81191299    -1.15924098     3.70212399     0.82542007     1.08149432    -2.62624556
Ti      0.12794744     1.05990742     8.30543064    -0.37603555    -1.41945182    -0.54747086
Ti      1.71740899     2.72774701     3.53462399    -2.66323886     1.26505522     0.78458116
Ti      0.04481846    -2.47745553     8.52871762    -1.17951227     0.52064730     1.71844012
Ti      2.09209898    -0.89614903     3.53727998    -2.30484520    -0.75274575     1.83635095
O       2.27020247    -1.00883557     5.56065662     0.13457956    -2.49023698    -0.46487156
O       3.70118898     1.11494397     0.82989598     1.40501455     0.22047963    -0.76359401
O      -1.88212753     2.57722545     5.75588460     0.53445104     1.91426826    -1.06726686
O       0.26203799     4.86501899     0.71070500    -0.48889442     0.14729110     0.95416013
O      -2.03416656    -1.01751456     5.62665465    -0.55426423    -3.89474837    -0.39800255
O       7.16138001     1.15327699     0.84625798     0.61798724    -1.68000237    -1.08371447
O       3.48835845     2.97601247     8.66509363     0.50840499    -0.81234574     1.94658755
O       5.51628299     4.59758498     4.04578402     0.19974882     0.25293494     0.60835512
O       3.84017644    -0.80302653     8.88474860    -0.48987118    -1.61394993     1.17650896
O       5.81137900     0.83374299     3.96743700    -0.16182426    -0.59014244     0.16387318
O      -0.20566754     2.76513047     8.96538463     0.78815371     0.80613113     0.98131279
O       2.15766700     4.44836101     4.09146700    -0.12916559     0.60698986     0.40823477
O       0.16783444    -0.47686856     9.29004561    -0.72216658    -1.03959381    -0.01604086
O       1.75310999     1.09343800     4.43271102    -0.73915078     0.07251362    -2.21749425
O       2.02031545     0.92103443     8.13683863    -2.17726624     0.80114601    -1.36104713
O       3.47539699     2.23670899     3.27405298     3.38200207     1.04131156     0.20530215
O       1.90307644    -2.46370555     8.05650460     0.34991081    -0.84969335    -0.30611360
O       3.89158601    -0.80678797     3.26456002     0.40635349    -0.33879259    -1.45266046
O      -1.92695456     0.80280846     8.22464062     2.97327673     0.77471326    -1.20542128
O      -0.17197102     2.84396999     3.34620202     1.13975169     0.17976491    -1.30082776
O      -1.87167554    -2.57255657     8.43738263     0.86430442    -0.28512619    -0.66078893
O       0.31106901    -1.00173502     3.47169698    -2.67986902    -0.85128563    -0.05419476
O       4.02933243     4.54099243     6.64979960    -1.81856405     0.41685105    -1.08241272
O       5.82225602     6.60506301     1.69195599    -1.34669934    -0.53826090     0.18333798
O       3.90770644     0.84981347     6.45134464    -1.03392118     0.20365227    -0.50719914
O       5.46963702     2.86743599     1.74388701    -0.47355290     0.97866507     1.14613368
O       0.00395343     4.95267545     6.62272864     1.81693166    -0.61002762    -1.11157881
O       1.66684198    -0.44844502     1.39860298     1.68620336    -0.86951424     0.85971577
O       0.00607146     0.25097644     6.51079262     0.64874022     2.02795297     0.49505067
O       1.82008600     2.38213500     1.56192100    -1.82887495     1.41312844     0.47419413
