# total energy = -39040.27715896 eV

CRYSTAL
PRIMVEC
        7.60629642    -0.00000847    -0.00005503
       -0.00000847     7.60629642    -0.00005503
       -3.80314186    -3.80314186     9.70738094
PRIMCOORD
46 1
Ti      1.91334218     4.75400072     6.18628703    -0.03309577    -0.00060858     0.00594491
Ti      3.80258917     6.64086182     1.20439320     0.02948234     0.03396377    -0.00971620
Ti      1.81255041     0.95087839     6.01325830     0.19603126     0.00023911    -0.06196824
Ti      3.80260545     2.86732197     1.20445302     0.03014697    -0.03418309    -0.01034304
Ti     -1.91066247     4.75406265     6.07311780     0.03873908    -0.00016789    -0.06794863
Ti      0.00092057     6.66506216     1.20755668    -0.04027763     0.04334264     0.14402425
Ti     -1.81378742     0.95090107     6.04299695    -0.14012415    -0.00008922    -0.06987515
Ti      0.00092895     2.84307734     1.20758999    -0.04095717    -0.04392577     0.14377846
Ti      3.79670231     0.95067665     8.59536746     0.08173386     0.00026200     0.02838345
Ti      5.70071713     2.86286280     3.63407499    -0.02763551    -0.00050085     0.04223476
Ti      3.82267997    -2.85247547     8.50663969     0.06554541     0.00000771     0.01313243
Ti      5.70067940    -0.96167272     3.63410291    -0.02782937     0.00055150     0.04172311
Ti      0.01160464     0.95059676     8.46213770    -0.02194129    -0.00003342    -0.08751756
Ti      1.90407240     2.75981358     3.60347426     0.01693098     0.27472967     0.02355723
Ti     -0.01804400    -2.85256853     8.50492761    -0.05597679    -0.00032165     0.06388474
Ti      1.90404515    -0.85820671     3.60355470     0.01706622    -0.27506983     0.02335951
O       1.95904539     2.91317942     5.60478347     0.05349542    -0.07729227     0.03398125
O       3.80835557     4.75392771     0.77543050     0.05659026    -0.00001106    -0.07227348
O       1.95905018    -1.01151890     5.60486504     0.05353322     0.07651117     0.03394706
O       3.79341518     0.95077617     0.79119690    -0.04610581     0.00009179    -0.02002324
O      -1.96833631     2.82972676     5.67146498    -0.10487199     0.04496887    -0.05570477
O      -0.00598665     4.75393468     0.82656310    -0.06057393    -0.00016532    -0.07339962
O      -1.96832721    -0.92812781     5.67149286    -0.10487534    -0.04513573    -0.05567572
O       0.00880913     0.95078439     0.80695640     0.04079931     0.00020106     0.13388099
O       3.80150801     2.86325307     8.91913026    -0.01194149    -0.00855766     0.14332620
O       5.71184957     4.75392552     4.07726167     0.03315927    -0.00021006     0.09624003
O       3.80152165    -0.96171765     8.91918612    -0.01201965     0.00890605     0.14336425
O       5.67298125     0.95076790     4.03981006     0.01211221     0.00000334    -0.08009632
O       0.00205993     2.83478761     8.89421909     0.01433365     0.04395148    -0.01723617
O       0.00204953    -0.93321391     8.89423065     0.01445398    -0.04389543    -0.01716109
O       1.93715523     0.95074105     4.06613374     0.01464835     0.00218698    -0.31428560
O       1.99541001     0.95087321     7.99369926    -0.06348622    -0.00011724     0.06125116
O       3.78072849     2.92512171     3.23830632     0.07332635     0.15558934    -0.13485338
O       1.90059783    -2.85232399     8.11054252    -0.00214533    -0.00002237     0.00607783
O       3.78070720    -1.02346981     3.23829573     0.07385599    -0.15573460    -0.13457133
O      -1.99588162     0.95086522     8.00175682     0.08102243    -0.00000026     0.06438096
O       0.02115765     2.90707311     3.25809747    -0.07193538     0.03111165    -0.01735624
O      -1.90200152    -2.85231177     8.07395551     0.00600301     0.00000951     0.10564615
O       0.02118886    -1.00544067     3.25807226    -0.07260567    -0.03140784    -0.01709836
O       3.80804909     4.75387459     6.48629139     0.05622182     0.00025300     0.20627094
O       5.70559144     6.66102039     1.65226029    -0.02720460     0.01376621     0.02184564
O       5.70559926     2.84671357     1.65232415    -0.02724342    -0.01376775     0.02140084
O      -0.00572858     4.75385505     6.47621057    -0.06733825     0.00013318     0.07974974
O       1.89934181     6.62370120     1.62396028     0.02705110     0.01986898    -0.06740998
O       0.01063497     0.95076672     6.48721264    -0.05327739    -0.00005168    -0.22911032
O       1.89933950     2.88409166     1.62402066     0.02717991    -0.01937995    -0.06776222
