# total energy = -4983.80340728 eV

CRYSTAL
PRIMVEC
        4.02893151     0.00000000     0.00000000
        0.00000000     2.70545639     0.00000000
        0.00000000    -0.00008671     5.36796942
PRIMCOORD
6 1
Ti      2.01446575     1.35268479     2.68398461     0.00000000     0.00000000     0.00000000
Ti      0.00000000     0.00000000     0.00000000     0.00000000     0.00000000     0.00000000
O       2.01446575     0.52723670     1.04613816    -0.00000000    -1.21268568     0.43882114
O       2.01446575     2.17813293     4.32183106    -0.00000000     1.21268568    -0.43882114
O       0.00000000     0.82541371     3.73012380    -0.00000000     1.21241083     0.43747619
O       0.00000000     1.87995587     1.63784537    -0.00000000    -1.21241083    -0.43747619
