# total energy = -19960.27434505 eV

CRYSTAL
PRIMVEC
        7.60600008     0.00000000     0.00000000
        0.00000000     7.60600008     0.00000000
       -1.89786986    -1.89786986     4.85670466
PRIMCOORD
24 1
Ti      3.93716097     6.74680599     1.14663799    -2.08882669     1.30284402     0.65310030
Ti      3.88651802     2.98681700     1.20488802    -0.47541412    -1.35888252    -0.12782038
Ti     -0.05781801     6.55267398     1.20979000     2.15966858     1.19907786     0.05326119
Ti      0.07293899     2.81371497     1.29804999    -0.48962127    -1.97741226    -0.54848387
Ti      5.67029420     2.67919325     3.67930983    -0.25660699    -0.14231010    -0.45693765
Ti      5.71441621    -1.04339376     3.70287981    -0.81714985     0.19085049    -0.23163617
Ti      1.93895921     2.91842523     3.63812180     0.05904386     0.28916462    -0.77063241
Ti      1.86993724    -0.76031780     3.64329683     0.44680647    -0.95298900    -1.44685773
O       3.80978600     4.82818402     0.66066197     0.16539424     0.84507821     1.40578331
O       3.74634601     0.95524299     0.69576802     0.45084002     1.29952704     0.70506488
O      -0.03274200     4.57665200     0.75946101    -0.22178010     0.88657043     1.32824138
O      -0.17305901     0.82819399     0.72111201     0.21219039     1.23030931     0.99137352
O       5.62449624     4.67228724     4.10098779    -0.17478546    -1.03790948    -0.62680536
O       5.63213222     0.82006223     4.02583383     0.13333643     0.84416059     1.06521486
O       1.98190025     4.95099521     3.98198583    -0.00396053    -2.91778177    -0.50445448
O       1.87369324     1.07201722     4.16997483     0.00293646    -0.31529373    -1.34600026
O       3.78665222     2.63560524     3.06794480    -1.42863914     0.80409867     2.39019943
O       3.70160222    -0.71543780     3.12221780     0.89293263    -0.76768695    -0.03478627
O      -0.10175877     2.59930024     3.30719879     1.97708830     1.14981190    -1.19100253
O      -0.07455277    -0.93878378     3.22433683     0.51951575    -0.26215775     0.04520644
O       5.70079302     6.68719597     1.66957301    -0.37887687    -0.67419672    -0.50744622
O       5.61131200     2.68876400     1.74911200     1.87127271     0.77107798    -1.52773798
O       1.83391102     6.88175402     1.55237798    -0.86005927    -1.11550566     0.22745298
O       1.93628702     2.72909900     1.57244300    -1.69530532     0.70955480     0.45570326
