# total energy = -19517.76502648 eV

CRYSTAL
PRIMVEC
        5.17600016     0.00000000     0.00000000
        0.00000000     5.50899976     0.00000000
        0.00000000     0.00000000     9.26300011
PRIMCOORD
23 1
Ti      1.80009802     3.12423401     3.43284003    -0.22465639    -0.00193527     2.17438146
Ti      3.41461299     2.20983499     5.89436399     0.75738994     0.27255503    -2.49010868
Ti      4.38002402     2.11716102     1.40761900     0.42940627    -0.90016849    -0.36700197
Ti      0.95091802     3.40150601     7.75153700    -2.24274378     0.17282679     0.82355576
Ti      1.97106201     0.28656901     1.30815998    -0.63883298     0.69141978    -0.06883874
Ti      3.23780302     5.18831898     7.96218802     0.58975986     1.04769202    -0.07892107
Ti      0.75496702     0.54454800     5.91071599    -0.62939549    -0.13777776    -2.73964847
Ti      4.43560700     4.90071898     3.38319902     0.80494328     0.65886317     2.61921924
O       1.57507402     1.87592901     4.87687801     1.08997280     1.28829208    -1.36339815
O       3.51240098     3.48835702     4.49973502    -0.40730532     0.42464458    -0.07316205
O       0.19617098     2.61727999     9.24565701     0.42241055     0.36465198     0.04839872
O       3.40196402     0.90390798     0.10747399     0.28936748    -0.05963110     0.78225508
O       1.66045200     4.79292399     9.00102001    -0.05262459    -0.38637910     0.80089687
O       4.31363598     0.80815701     4.77853200    -0.81070178    -0.12263730     0.01476996
O       0.92092500     4.71137798     4.32660802     0.28767081    -0.20017254     1.39714775
O       0.06510499     3.36594303     2.53234201     0.35725055     0.18543369    -0.56568867
O       5.08557700     2.08087799     6.80442599    -0.31714749     0.38317010     0.05100736
O       2.62989600     1.85642301     2.24167299     0.06529962     1.13276060    -0.09173340
O       2.67711300     3.56738599     7.16273100     0.94557985    -1.42539441    -0.71276508
O       0.21427101     0.76910801     2.13438701     0.11823017    -1.28406339    -0.58212034
O       5.05184099     4.89258097     7.13830000    -0.57537248    -1.10218297     0.90748457
O       2.45377300     0.91722102     6.88495301    -0.72781453    -0.79949459     0.57886558
O       2.69781198     4.63442101     2.47747898     0.46931392    -0.20247291    -1.06459574
