# total energy = -4891.70756237 eV

CRYSTAL
PRIMVEC
        5.84734038     0.00000000     0.00000000
       -0.00000723     1.94911346     0.00000000
       -2.92370740    -0.97468356     6.63333973
PRIMCOORD
6 1
Ti     -0.00025025     1.46188157     1.65833452    -0.05620871    -0.03787673   104.34607224
Ti      2.92387583    -0.48745173     4.97500422     0.05620871     0.03787673  -104.34607224
O       0.00006173     0.48725724     1.08051666     0.05440379     0.03728204  -100.75953652
O       2.92356368     0.48717256     5.55282214    -0.05440379    -0.03728204   100.75953652
O      -0.00002682    -0.48733909     4.39718636    -0.00112049     0.00011699    -0.54790254
O       2.92365213     1.46176883     2.23615244     0.00112049    -0.00011699     0.54790254
