# total energy = -19886.62923992 eV

CRYSTAL
PRIMVEC
        9.13002768     0.00000000     0.00000000
        0.00002990     4.16447577     0.00000000
        0.00000000     0.00000000    13.89518854
PRIMCOORD
24 1
Ti      3.30921348     2.46786450     5.15501585     0.27888998    -0.35374253     2.75610688
Ti      5.82084371     1.69661134     8.74017290    -0.27888998     0.35374253    -2.75610688
Ti      7.87407105     1.69661275     1.79252295     0.27886607     0.35369599    -2.75691575
Ti      1.25598613     2.46786322    12.10266593    -0.27886607    -0.35369599     2.75691575
Ti      3.30919873     0.38562668     1.79257869     0.27888998    -0.35374253    -2.75610688
Ti      5.82085846     3.77884922    12.10261019    -0.27888998     0.35374253     2.75610688
Ti      1.25597138     0.38562513     8.74011716    -0.27886607    -0.35369599    -2.75691575
Ti      7.87408580     3.77885077     5.15507159     0.27886607     0.35369599     2.75691575
O       2.88972183     1.46638270     7.09060841     0.94692556     1.08877235    -2.49064193
O       6.24033535     2.69809307     6.80458034    -0.94692556    -1.08877235     2.49064193
O       1.67536624     1.46639950     0.14305874    -0.94560530     1.08854043    -2.48985825
O       7.45469101     2.69807634    13.75212960     0.94560530    -1.08854043     2.48985825
O       6.24032067     0.61585519     0.14301367    -0.94692556    -1.08877235    -2.49064193
O       2.88973651     3.54862065    13.75217468     0.94692556     1.08877235     2.49064193
O       7.45467633     0.61583839     7.09065348     0.94560530    -1.08854043    -2.48985825
O       1.67538079     3.54863745     6.80453526    -0.94560530     1.08854043     2.48985825
O       0.33173307     2.53307022     3.75343711    -2.15223577     0.65086035    -0.01540657
O       8.79832411     1.63140555    10.14175163     2.15223577    -0.65086035     0.01540657
O       4.89675853     1.63136675     3.19420143    -2.15405380    -0.65089378     0.01505022
O       4.23329866     2.53310908    10.70098711     2.15405380     0.65089378    -0.01505022
O       0.33171839     0.45083233     3.19415709    -2.15223577     0.65086035     0.01540657
O       8.79833880     3.71364351    10.70103145     2.15223577    -0.65086035    -0.01540657
O       4.23328397     0.45087113    10.14179591     2.15405380     0.65089378     0.01505022
O       4.89677321     3.71360471     3.75339277    -2.15405380    -0.65089378    -0.01505022
