# total energy = -19940.50690513 eV

CRYSTAL
PRIMVEC
        5.90378169     0.00000000     0.00000000
        1.24427019     6.15897882     0.00000000
        0.00000000     0.00000000    10.62022801
PRIMCOORD
24 1
Ti      2.87719017     3.64980515     3.94002898     0.05032499    -1.78590306     0.83772640
Ti      4.27086142     2.50917382     6.68019945    -0.05032499     1.78590306    -0.83772640
Ti      5.59854738     2.50917603     1.37004280    -0.26874363    -0.29559367    -0.12286355
Ti      1.54950423     3.64980318     9.25018575     0.26874363     0.29559367     0.12286355
Ti      2.25505522     0.57031596     1.37008539     0.05032499    -1.78590306    -0.83772640
Ti      4.89299639     5.58866318     9.25014316    -0.05032499     1.78590306     0.83772640
Ti      0.92736918     0.57031358     6.68015687     0.26874363     0.29559367    -0.12286355
Ti      6.22068243     5.58866556     3.94007156    -0.26874363    -0.29559367     0.12286355
O       2.30671276     2.16868117     5.41942122     1.61102067     1.81548798    -0.53972926
O       4.84133883     3.99029780     5.20080721    -1.61102067    -1.81548798     0.53972926
O       1.52147484     2.16870597     0.10934121    -0.74421843     0.24416207     0.75759717
O       5.62657682     3.99027305    10.51088691     0.74421843    -0.24416207    -0.75759717
O       4.21920386     0.91080844     0.10930674    -1.61102067    -1.81548798    -0.53972926
O       2.92884773     5.24817053    10.51092139     1.61102067     1.81548798     0.53972926
O       5.00444185     0.91078369     5.41945570     0.74421843    -0.24416207     0.75759717
O       2.14360969     5.24819535     5.20077273    -0.74421843     0.24416207    -0.75759717
O       0.97133364     3.74623998     2.86878864     0.37977470     1.08032498     1.22153928
O       6.17671795     2.41273899     7.75143979    -0.37977470    -1.08032498    -1.22153928
O       3.65382338     2.41268146     2.44135936     0.73570447     1.22484623     0.40609432
O       3.49422821     3.74629750     8.17886889    -0.73570447    -1.22484623    -0.40609432
O       0.34919867     0.66675062     2.44132542     0.37977470     1.08032498    -1.22153928
O       6.79885292     5.49222841     8.17890283    -0.37977470    -1.08032498     1.22153928
O       2.87209323     0.66680808     7.75147366    -0.73570447    -1.22484623     0.40609432
O       4.27595836     5.49217088     2.86875471     0.73570447     1.22484623    -0.40609432
