# total energy = -19072.64396831 eV

CRYSTAL
PRIMVEC
        5.17600016     0.00000000     0.00000000
        0.00000000     5.50899976     0.00000000
        0.00000000     0.00000000     9.26300011
PRIMCOORD
22 1
Ti      1.73258098     3.50468102     3.32538598    -0.80584265     0.67772813     0.70343352
Ti      3.77545197     2.20519601     6.02409899     0.32198888    -0.05629201     0.42509324
Ti      4.42770998     2.46968298     1.48578001    -1.18424670    -0.44754592    -1.41070878
Ti      1.47834798     2.75903398     7.85190399    -2.14556016    -0.66769800     1.69430002
Ti      1.70385999     0.75318698     1.38412300     0.01877652     0.49310306    -0.92646009
Ti      3.12385200     5.43274400     7.86350303     0.67895095    -0.52178758     1.59555754
Ti      0.56256902     5.31040499     6.32403999    -0.80376134    -0.52258900    -0.21959569
Ti      4.28238198     5.14074902     3.45053301     1.12635469     1.16031640     2.03776045
O       3.13128202     3.09339298     4.36152901     1.24516335     0.00504939     1.95169377
O       0.48115801     1.86640499     0.23471800     1.82894257     0.93173291    -1.17110373
O       0.33192601     3.02341299     6.47286199    -0.63075046     1.57188075    -1.86553375
O       3.30646901     0.96067298     0.26005802    -1.64276095    -1.40739334    -0.24536509
O       1.35226902     4.67621299     8.06526201    -1.69256144     0.61950265     0.56284991
O       4.06048002     0.51096397     5.17874098    -0.47197244    -0.27973073    -1.29683586
O       0.83662098     4.97416799     4.47795398     0.89354867    -1.53290333     0.08358942
O       0.07962498     4.05236000     2.21787002    -0.03618778    -1.06053494    -1.04334454
O       4.58098400     0.92288999     7.36202302     1.23238420     0.23030897     0.32476567
O       2.45823100     2.33283002     1.98366802     0.59537875     0.52062004     0.10356305
O       3.18082698     3.32769002     7.69709101     2.39343054     0.93257392    -0.48902580
O       5.07309101     1.19899299     2.51389299     0.39828408    -1.22443897     1.81540057
O       2.13979700     1.22819198     6.83734600    -0.75550403    -0.74463366    -1.00278717
O       2.61955799     4.95172098     2.62229198    -0.56405525     1.32273151    -1.62724640
