# total energy = -4985.12735163 eV

CRYSTAL
PRIMVEC
        3.29946652     0.00000000     0.00000000
        2.21429753     4.67155251     0.00000000
       -0.00001447    -0.00006947     5.31262942
PRIMCOORD
6 1
Ti      2.75687468     2.33574155     2.65631459     0.00000000     0.00000000     0.00000000
Ti      0.00000000     0.00000000     0.00000000     0.00000000     0.00000000     0.00000000
O       2.08126434     0.91040330     1.03535320     0.16891408     0.39247544    -0.20101201
O       3.43248497     3.76107980     4.27727599    -0.16891408    -0.39247544     0.20101201
O       0.67560429     1.42531021     3.69166889    -0.17028551    -0.39074663    -0.20172240
O       1.53867864     3.24617274     1.62096030     0.17028551     0.39074663     0.20172240
