# total energy = -19950.38042224 eV

CRYSTAL
PRIMVEC
        5.54767947     0.00000000     0.00000000
        1.73237251     5.64454827     0.00000000
        0.00000000     0.00000000    10.04528560
PRIMCOORD
24 1
Ti      3.03736929     3.34495411     3.72672931     0.75349908    -2.38919464     1.00042510
Ti      4.24268258     2.29959429     6.31855634    -0.75349908     2.38919464    -1.00042510
Ti      5.49028590     2.29959623     1.29587338    -1.73397344    -0.56648057     0.55484324
Ti      1.78976607     3.34495238     8.74941238     1.73397344     0.56648057    -0.55484324
Ti      2.17118317     0.52268006     1.29591366     0.75349908    -2.38919464    -1.00042510
Ti      5.10886873     5.12186850     8.74937211    -0.75349908     2.38919464     1.00042510
Ti      0.92357983     0.52267796     6.31851607     1.73397344     0.56648057     0.55484324
Ti      6.35647207     5.12187061     3.72676959    -1.73397344    -0.56648057    -0.55484324
O       2.36587336     1.98754144     5.12603235     1.22781971     1.69811554    -0.81670531
O       4.91417853     3.65700701     4.91925330    -1.22781971    -1.69811554     0.81670531
O       1.62800138     1.98756421     0.10342186    -0.06171293    -0.43416590     0.87920911
O       5.65205057     3.65698429     9.94186351     0.06171293     0.43416590    -0.87920911
O       4.04799238     0.83473280     0.10338927    -1.22781971    -1.69811554    -0.81670531
O       3.23205951     4.80981565     9.94189610     1.22781971     1.69811554     0.81670531
O       4.78586442     0.83471008     5.12606494     0.06171293     0.43416590     0.87920911
O       2.49418742     4.80983844     4.91922071    -0.06171293    -0.43416590    -0.87920911
O       1.25528719     3.43333428     2.71348225     0.29321900     1.13422098     1.04662218
O       6.02476469     2.21121418     7.33180340    -0.29321900    -1.13422098    -1.04662218
O       3.65403994     2.21116155     2.30919252     1.12732580     0.82822488     0.03160633
O       3.62601194     3.43338691     7.73609296    -1.12732580    -0.82822488    -0.03160633
O       0.38910099     0.61106008     2.30916044     0.29321900     1.13422098    -1.04662218
O       6.89095084     5.03348838     7.73612505    -0.29321900    -1.13422098     1.04662218
O       2.75982579     0.61111270     7.33183543    -1.12732580    -0.82822488     0.03160633
O       4.52022609     5.03343575     2.71345016     1.12732580     0.82822488    -0.03160633
