# total energy = -39024.83948755 eV

CRYSTAL
PRIMVEC
        7.60600008     0.00000000     0.00000000
        0.00000000     7.60600008     0.00000000
       -3.79573973    -3.79573973     9.71340985
PRIMCOORD
46 1
Ti      1.56848947     4.22417343     6.35957361     3.11534206    -1.53252898    -6.87096284
Ti      3.75760902     0.08266400     1.47052600     0.55734647    -3.55891769    -0.34274232
Ti      1.91469045     0.53129242     6.18473662     1.16893140     1.01732856    -0.74598735
Ti      3.89243502     3.10936599     1.26850603    -1.44243132     1.07159737    -1.13245901
Ti     -1.91352356     4.25938647     6.09597962    -3.43485549    -1.07166371    -0.78224480
Ti      0.04683102    -0.37635700     1.47758099    -1.98054901     0.78448012    -4.29100487
Ti     -1.93892656     0.44153745     6.10535665    -0.67914378     1.29069478    -1.28394383
Ti     -0.00434201     3.33924498     1.44073602     0.66616202    -1.85752939    -0.78451688
Ti      3.97497243     1.52408345     8.61025865    -1.08361857     0.61777333     0.41947821
Ti      5.84045602     2.22373198     3.32370902    -0.05046100     1.36402575     2.36860524
Ti      3.77705146    -2.24611258     8.36849460     1.99869483    -1.46756900     0.27214906
Ti      5.73159500    -1.34260799     3.44010600    -1.99867015    -0.91774970     2.04506058
Ti     -0.08444653     1.80359043     8.09605060     0.32600675    -0.09123692     2.54763636
Ti      2.14455801     2.04149100     3.59389099    -1.38226722    -0.24484753     0.83897184
Ti     -0.05104957    -1.90566253     8.25810664    -2.06808842     1.06539870    -1.94148211
Ti      1.85577000    -1.30189298     3.36623000     0.56830760     0.24461407     1.48175481
O       1.61504246     5.60048144     5.11776060    -0.63285080    -0.01477794     0.70970547
O       3.71557901     1.51424499     0.26981499    -0.35431460    -0.22311553     0.60094031
O       5.34016343     2.36604446     5.36342564     1.74499474     2.92168907    -0.73166630
O       0.06838801     5.13936802     0.88311899     0.50754109     0.99458740    -0.28296852
O      -1.72765355    -1.53591654     5.43764264    -0.40755420     0.36125813     0.45413978
O       0.13428000     1.55162099     0.48382798    -0.62954050     1.70670971     1.47176016
O       3.79151245     3.40279848     9.09288163    -0.26255344    -1.49692304     0.50233127
O       5.88863602     4.26355501     3.58243902    -0.65196850     0.24600118     0.65264238
O      -3.29829057    -0.30451653     8.60418163    -0.95976617    -2.08689913    -0.00484447
O      -1.53532699     0.64278600     4.25995597     0.11565212    -3.00903025    -0.42338654
O       3.96014298     6.15707901     0.10104603    -0.82317806     2.27738144     0.15160233
O       1.77611946     2.51316844     5.35788060    -0.23003411    -0.27997421     0.68173237
O      -0.12699455     0.14338746     9.26291263     0.15465654    -3.00787685     1.16752372
O       1.57446700     0.38227802     4.10542802     0.51370686    -0.95308618     3.97329328
O       2.19782843     1.27328143     7.91568165    -1.34368806     0.39772127    -0.57270779
O       3.80765098     1.45148700     2.75964100     1.00366546     2.08829087     1.42492158
O       1.53927544    -3.05249457     7.97988762     1.18144779     3.07763219     5.84206457
O       3.74973502     6.20579502     3.23722002    -0.52785924     0.27092418    -1.19849473
O      -1.91995756     1.72607247     7.86453963     0.35188337    -0.01366388    -0.56981941
O       0.16783899     2.21907702     3.01424098    -1.40318444     0.61645461    -0.18772222
O      -2.01482555    -2.70808056     8.07393364     0.51091027     1.66305802    -1.32006245
O      -0.13112599     6.26409400     3.13686701     2.22684716    -0.35693610    -0.56963686
O       3.63765147     4.25542945     6.26046665     0.55426937     1.13591740     1.82946193
O       5.59996300     0.02597900     1.70992902     1.77392429    -0.94127273     0.93462000
O       3.85891746     0.80939946     6.06963861    -1.92481673    -2.64861442     0.45684715
O       5.70217099     3.09778103     1.40647201     0.41845208    -0.29345580     0.05932694
O      -0.35153954     3.66043445     6.96722260     1.45656493    -0.17768823    -0.98168483
O       1.69189201     0.18047199     1.99417499     1.81349152    -1.25735116    -2.51615499
O      -0.05862453     0.22501643     6.87200965     0.78497891    -0.18044574    -1.07057510
O       2.14535400     3.32437398     2.33810602     0.75761645     2.46961621    -2.28150112
