# total energy = -39032.99659497 eV

CRYSTAL
PRIMVEC
        5.93200024     0.00000000     0.00000000
        0.00000000     9.29399984     0.00000000
        0.00000000     0.00000000     9.29399984
PRIMCOORD
46 1
Ti      4.57976001     7.02340303     6.91078998    -1.13562558    -0.13013695    -0.63340693
Ti      4.59058899     6.98946599     2.33314302    -1.32491412     0.58494727     0.64326531
Ti      4.47532498     2.39385400     6.97534299    -0.17275660    -0.09355836    -0.56408173
Ti      4.28692798     2.39711299     2.17242602    -0.24596210    -1.07794106     0.51549969
Ti      1.53947399     6.92573601     6.93191299     1.38938918    -0.14133488    -0.19508021
Ti      1.49261598     7.06623500     2.39907401     1.53045101    -0.10285471    -0.63442611
Ti      1.51079099     2.35687001     7.04266301     0.31093750    -0.78523705    -0.79034609
Ti      1.18847199     2.06424600     2.43879998     1.56614436     0.74688955    -0.21206621
Ti      2.98013699     4.60736200     4.65283299    -0.96164385     0.69058494    -0.13524059
Ti      2.87917499     4.79753799     9.08648901     0.41850093     0.59352190     0.24618039
Ti      2.97334399     0.01341702     4.56858998     0.43614230    -0.01439047     1.41430061
Ti      2.87665902     9.14252999     9.08990401    -0.37205188    -0.97944386     0.94259685
Ti      5.88699398     4.57391398     4.65549099     1.09056852     0.31291340     0.05752203
Ti      5.89059202     4.72907198     0.00545100    -0.10075463     0.27906327    -0.29265156
Ti      0.02167399     9.15682699     4.82114099    -0.58798271     1.04744442    -0.43406202
Ti      5.88419601     0.16760398     9.25906599    -0.51247042    -1.34515591     0.63974547
O       4.52126402     5.50164700     5.56643602    -0.90924295    -0.05624779    -0.33675216
O       4.54280598     5.81335801     0.84598699    -0.18339711    -1.52280300    -0.27995827
O       4.57723700     0.95232997     5.56694800     0.00768015     0.09629222    -0.49325707
O       4.44110398     0.74627597     1.09612998    -0.28887692     1.34913598    -0.98941280
O       1.53023101     5.50122800     5.59182600     0.29099782    -0.05985608    -0.55825638
O       1.46151798     5.76410003     0.77300800     0.27202770    -1.43254285     0.46227912
O       1.51666301     0.65792602     5.73729498     0.26269074     2.56383972    -1.01850201
O       1.46953898     0.81202900     0.81298998     0.72182925     1.40194697     1.01531822
O       4.55923100     8.35200300     8.16174198    -0.26712563     1.27948168     2.24980223
O       4.44628600     8.11000601     4.05274800     0.29729625     1.84009833    -0.74204276
O       4.47791498     3.93756098     8.14798797    -0.20667589    -0.63743893     1.70542467
O       4.45102500     3.54337902     3.81067100    -0.02762574     0.60830704    -0.66791654
O       1.36026499     8.11554999     8.51218099     1.07615877     1.73857829     0.14191081
O       1.59354601     8.22879202     3.93046000    -0.44373632     0.84760947    -1.22705173
O       1.51731099     3.76727100     8.36207298     0.18681874     0.21163838     1.25347830
O       1.39489499     3.71591302     3.75436400     0.65982168    -0.76409178    -1.10457615
O       3.01711102     6.00254999     7.73612101     0.87327937     0.55051041     0.42315797
O       3.06217301     6.08614402     3.18933001    -0.57765742    -0.96757924     0.06007025
O       2.94335599     1.35765699     7.81688500     1.23558059    -0.12686625     0.93693554
O       2.79943603     1.51583998     3.35153401     0.29500283    -0.42773454    -1.11271087
O       0.06068298     5.95838100     7.76555703    -0.42811892     0.50914803    -0.00113926
O       0.09084402     6.18665600     3.49073498    -0.41292472    -0.45181781    -2.31246415
O       5.93007901     1.61547400     8.05767901    -0.48998225    -0.59022086    -0.30713870
O       3.03110998     8.02914900     6.17256798    -0.05772617    -1.55363594     0.45053226
O       2.93422498     8.04663000     1.41321002     0.33947702    -1.14775733     0.66241695
O       2.94629298     3.29096602     6.17362702     0.31884134    -0.28328425    -0.93732377
O       0.31421201     8.06096599     6.16103800    -2.38989347    -2.61746215     1.15725011
O       0.02590899     8.07759200     1.53379899     0.09311331    -1.41438417     1.11010840
O       0.17282098     3.15588702     6.06102498    -1.42667996     0.31448434    -0.40028851
O       5.87638302     3.01300403     1.33562301    -0.14892349     1.15734061     0.29235742
