# total energy = -19892.25760223 eV

CRYSTAL
PRIMVEC
        8.15181019     0.00000000     0.00000000
        0.00002534     2.89199706     0.00000000
        0.00000000     0.00000000    12.96884246
PRIMCOORD
24 1
Ti      2.95465394     1.71379468     4.81134817    -0.20080323     0.37070282     1.53413463
Ti      5.19718126     1.17820210     8.15749469     0.20080323    -0.37070282    -1.53413463
Ti      7.03041999     1.17820303     1.67302145    -0.20018385    -0.37053955    -1.53472239
Ti      1.12141527     1.71379386    11.29582152     0.20018385     0.37053955     1.53472239
Ti      2.95464161     0.26779621     1.67307345    -0.20164244     0.36969006    -1.53489928
Ti      5.19719366     2.62420069    11.29576951     0.20164244    -0.36969006     1.53489928
Ti      1.12140288     0.26779522     8.15744268     0.19994551     0.36995874    -1.53383253
Ti      7.03043239     2.62420168     4.81140018    -0.19994551    -0.36995874     1.53383253
O       2.58010819     1.01832124     6.61790120     4.27958814    -0.03728435    -0.09623591
O       5.57172707     1.87367560     6.35094166    -4.27958814     0.03728435     0.09623591
O       1.49586216     1.01833298     0.13352152    -4.28363198    -0.03762040    -0.09581502
O       6.65597315     1.87366386    12.83532094     4.28363198     0.03762040     0.09581502
O       5.57171467     0.42767701     0.13347941    -4.28199084     0.03743528    -0.09374837
O       2.58012059     2.46431977    12.83536306     4.28199084    -0.03743528     0.09374837
O       6.65596076     0.42766533     6.61794326     4.27943465     0.03769367    -0.09602560
O       1.49587439     2.46433151     6.35089960    -4.27943465    -0.03769367     0.09602560
O       0.29618933     1.75907655     3.50320796    -0.39588190     0.24383554     2.88279855
O       7.85564593     1.13292024     9.46563484     0.39588190    -0.24383554    -2.88279855
O       4.37210521     1.13289343     2.98125467    -0.39497404    -0.24376124    -2.88329658
O       3.77973005     1.75910341     9.98758796     0.39497404     0.24376124     2.88329658
O       0.29617694     0.31307802     2.98121328    -0.39619403     0.24397027    -2.88338836
O       7.85565832     2.57891882     9.98762935     0.39619403    -0.24397027     2.88338836
O       3.77971771     0.31310482     9.46567618     0.39519747     0.24387514    -2.88390156
O       4.37211755     2.57889196     3.50316656    -0.39519747    -0.24387514     2.88390156
