# total energy = -4963.28000743 eV

CRYSTAL
PRIMVEC
        4.91937200     0.00000000     0.00000000
       -0.00000697     2.64889294     0.00000000
       -2.45971332    -1.32450607     5.30702703
PRIMCOORD
6 1
Ti     -0.00021056     1.98676098     1.32675655    -0.01638513    -0.01907116    28.69816662
Ti      2.45986191    -0.66237395     3.98027006     0.01638513     0.01907116   -28.69816662
O       0.00005222     0.66221286     0.86447128     0.01443084     0.01710427   -20.19052555
O       2.45959903     0.66217406     4.44255544    -0.01443084    -0.01710427    20.19052555
O      -0.00002009    -0.66223082     3.51798479    -0.00181211     0.00001466    -1.49778410
O       2.45967123     1.98661774     1.78904192     0.00181211    -0.00001466     1.49778410
