# total energy = -19074.93792982 eV

CRYSTAL
PRIMVEC
        7.60600008     0.00000000     0.00000000
        0.00000000     7.60600008     0.00000000
       -1.89786986    -1.89786986     4.85670466
PRIMCOORD
22 1
Ti      3.83148602     6.39919999     1.32212697     1.36779114     0.41087349    -1.50385448
Ti      3.71414298     2.75507002     1.21163302     1.24429021    -0.73553581     0.51791576
Ti      0.11504901     6.81284001     0.97965198    -0.51622731    -0.17107381     1.25666545
Ti      0.00891801     2.98993698     1.13693499    -0.85652297     0.14206122     0.84276859
Ti      5.60997525     2.93995825     3.56355580    -0.13282478     1.17120066    -0.71351122
Ti      6.12386822    -0.60704177     3.57442579    -0.46144428    -2.05970431    -0.11792446
Ti      1.86906823     2.62955420     3.59691582     0.04025732     0.75668674     0.72985161
Ti      1.42223821    -1.21514575     3.87445284     0.54403329     0.11804685    -0.40758608
O       4.01678098     4.50248802     0.73820898    -0.29233068     1.21711492     0.34162055
O       3.68306202     0.83084802     0.85003800    -0.28386481    -1.45214803     1.59950830
O      -0.16653298     4.92975102     0.61728600     1.02291172    -0.80925322     1.54520966
O       0.35896898     1.15561098     0.70458199     0.02404857     0.11278097     0.61478056
O       5.62935922     5.01499020     4.06247782     0.16576397     0.61222900    -2.58315025
O       5.49015920     1.11230523     3.96149784     0.49332495    -0.93604979     0.01734904
O       1.89761623     4.46140322     4.27452280    -1.03452205     1.82801209    -0.21170497
O       1.85386121     0.63236925     4.09146483    -0.36555213     1.81798453    -1.13925392
O       3.74886420     3.07161924     3.26784182    -0.13190638    -1.06974643    -0.49462001
O      -0.05255979     2.98511220     3.05236682     0.59658974    -0.43766440     1.38758607
O       5.87395701     6.86968201     1.61518301    -0.17398996    -0.23614949     0.87998815
O       5.64618002     2.78355298     1.65863899     0.41103264    -0.30087986    -1.03665915
O       2.17318301     6.33001001     2.12283698    -1.00291187     0.21720713    -0.43597313
O       1.91811201     3.06679500     1.72303700    -0.65794606    -0.19599295    -1.08900606
