# total energy = -4976.41675721 eV

CRYSTAL
PRIMVEC
        2.72301047     0.00000000     0.00000000
        1.64098051     3.93835295     0.00000000
       -0.00001046    -0.00005669     4.35801612
PRIMCOORD
6 1
Ti      2.18199018     1.96914800     2.17900801     0.00000000     0.00000000     0.00000000
Ti      0.00000000     0.00000000     0.00000000     0.00000000     0.00000000     0.00000000
O       1.68130606     0.76751584     0.84931313   -10.91857286     4.51254509     6.17249310
O       2.68267431     3.17078016     3.50870284    10.91857286    -4.51254509    -6.17249310
O       0.50067964     1.20160928     3.02832210    10.91791697    -4.51302974     6.17246122
O       1.14029039     2.73668689     1.32969392   -10.91791697     4.51302974    -6.17246122
