# total energy = -19932.41220419 eV

CRYSTAL
PRIMVEC
        6.66119323     0.00000000     0.00000000
        0.00003097     5.80051983     0.00000000
        0.00000000     0.00000000    10.94772403
PRIMCOORD
24 1
Ti      2.41438050     3.43738256     4.06152767     0.33136698    -0.73395664     0.74293699
Ti      4.24684376     2.36313702     6.88619679    -0.33136698     0.73395664    -0.74293699
Ti      5.74486170     2.36313889     1.41229082     0.33179970     0.73424923    -0.74361036
Ti      0.91636256     3.43738087     9.53543377    -0.33179970    -0.73424923     0.74361036
Ti      2.41436526     0.53712277     1.41233471     0.33136698    -0.73395664    -0.74293699
Ti      4.24685900     5.26339699     9.53538987    -0.33136698     0.73395664     0.74293699
Ti      0.91634732     0.53712065     6.88615289    -0.33179970    -0.73424923    -0.74361036
Ti      5.74487694     5.26339905     4.06157157     0.33179970     0.73424923     0.74361036
O       2.10832064     2.04246155     5.58653994     0.96722263     1.27608602    -0.70679704
O       4.55290362     3.75805803     5.36118452    -0.96722263    -1.27608602     0.70679704
O       1.22233672     2.04248499     0.11271297    -0.96636054     1.27540262    -0.70758688
O       5.43888761     3.75803465    10.83501118     0.96636054    -1.27540262     0.70758688
O       4.55288838     0.85779805     0.11267743    -0.96722263    -1.27608602    -0.70679704
O       2.10833588     4.94272153    10.83504672     0.96722263     1.27608602     0.70679704
O       5.43887231     0.85777467     5.58657548     0.96636054    -1.27540262    -0.70758688
O       1.22235183     4.94274497     5.36114898    -0.96636054     1.27540262     0.70758688
O       0.24203528     3.52820500     2.95725349    -0.74093204     0.04936160     0.06311392
O       6.41918898     2.27231458     7.99047097     0.74093204    -0.04936160    -0.06311392
O       3.57263856     2.27226067     2.51664357    -0.74069421    -0.04890909    -0.06321934
O       3.08858571     3.52825891     8.43108071     0.74069421     0.04890909     0.06321934
O       0.24201998     0.62794502     2.51660859    -0.74093204     0.04936160    -0.06311392
O       6.41920428     5.17257455     8.43111569     0.74093204    -0.04936160     0.06311392
O       3.08857040     0.62799893     7.99050589     0.74069421     0.04890909    -0.06321934
O       3.57265386     5.17252065     2.95721851    -0.74069421    -0.04890909     0.06321934
