# total energy = -19518.88252844 eV

CRYSTAL
PRIMVEC
        7.60600008     0.00000000     0.00000000
        0.00000000     7.60600008     0.00000000
       -1.89786986    -1.89786986     4.85670466
PRIMCOORD
23 1
Ti      3.79093702     6.70154102     1.19177199     0.95614657    -0.49388030    -0.12197729
Ti      3.74011002     2.80828800     1.15563199     0.21822555     0.44784931     0.61825952
Ti      0.01915701     6.66507298     1.24186502    -0.40475144    -0.13875709    -0.71577430
Ti     -0.03539000     2.85439801     1.17307701    -0.62716506    -0.27403368     0.46988419
Ti      5.53859220     2.89544322     3.64844779    -0.43889313    -0.12761547     0.59344580
Ti      5.77661020    -0.95453479     3.62812284     0.02183022    -0.17004151     0.11685154
Ti      1.88915622     2.88025023     3.67449580     0.51987957    -0.24363731     0.61407068
Ti      2.02053320    -0.93407177     3.55928979    -0.53902426    -0.23500766     0.74482521
O       3.91905099     4.75135399     0.84686998    -1.14390710    -0.60441207    -0.09817324
O       3.88326798     0.96001702     0.76176600     0.02016774    -0.23236533     0.03528840
O       0.06565100     4.73001201     0.79601599     0.30054202     1.18695639     0.43076973
O      -0.02305800     0.92252200     0.74147401     0.03756332     0.01432491     0.22682435
O       5.67490122     4.77667221     3.98303980     0.47682026    -0.67203468     0.19833137
O       5.63033624     1.00477223     4.18935881     0.42904374    -1.09570661    -2.31171468
O       1.94816922     4.73047123     4.07546081    -0.58746412     0.36314172    -0.42276871
O       1.85217620     0.90557224     4.04001583    -0.49792002     0.53944773     0.59431920
O       3.69081224     2.70926724     3.45604381     0.77437619     0.43204396    -1.59032431
O       3.83935923    -1.08102678     3.17508080     0.23357761     0.56103240     0.11641008
O       0.06862625    -1.03491676     3.14351480    -0.07418432     0.17644922     0.98455136
O       5.80306700     6.60783600     1.65371801    -1.02849924     0.50088245    -0.34739782
O       5.63619699     2.72107398     1.72575301     0.76528708     0.43633745    -0.09145469
O       1.96431902     6.91066700     1.62493400     0.01099815    -0.68737157    -0.24656426
O       1.78305602     2.74091802     1.70235898     0.57735017     0.31639776     0.20231787
