# total energy = -19959.23054202 eV

CRYSTAL
PRIMVEC
        7.60600008     0.00000000     0.00000000
        0.00000000     7.60600008     0.00000000
       -1.89786986    -1.89786986     4.85670466
PRIMCOORD
24 1
Ti      3.82151299     6.85003699     1.05823401     1.53526540    -0.10703841    -0.49887904
Ti      3.76554900     2.89258599     1.22250200     0.64271509    -0.02901234    -1.10992405
Ti     -0.07236499     6.64742201     1.24010498    -0.60253902    -2.03364540     1.01169193
Ti     -0.11717101     2.63129900     1.28551601    -0.05290844     1.09834251     1.17334907
Ti      5.52548120     2.84729021     3.78493382     1.05055237    -1.25690739    -0.14565999
Ti      5.65904723    -0.98009977     3.62625082     1.14246266     0.62133508     0.03235426
Ti      1.93110622     2.84863623     3.64808779    -0.88794083    -0.14432687     0.22780188
Ti      2.00304220    -0.90158579     3.41287581    -0.46041276     0.51292987     1.83782805
O       4.05701798     4.77636301     0.91135398    -1.06810684     1.06403370    -0.89038338
O       4.23054102     1.15832301     0.60232198    -2.01935700    -1.94528092    -0.37284763
O      -0.27006799     4.77643001     0.86738798     0.45366952    -0.59209057     0.38165829
O      -0.12046302     0.77213798     0.75830100     0.25217209     2.80648587     0.26845104
O       5.57930921     4.67297125     4.15051683     0.03705115     0.82383961    -1.48184789
O       5.88630822     0.87501025     4.31095279    -0.30967612    -0.20220834    -1.13451820
O       2.25341221     4.89131222     3.90573181    -1.04244131    -1.01341046     0.79565285
O       1.88846321     1.06553824     4.02988881    -0.78535969    -1.64742339     0.40318332
O       3.78971023     2.37936121     3.39911482     0.99694485     1.59831402    -1.25252802
O       3.89860221    -0.86665877     3.09786083    -1.61899624     0.31035952     0.03002638
O       0.04996021     2.79201124     3.31722681    -0.50273442     0.54268732    -0.47245735
O       0.03503122    -1.03812077     3.32836684    -0.08257101    -0.05678181    -1.36649633
O       5.60127298    -0.56885300     1.65219901     2.33158494    -1.52067644     0.57422834
O       5.64942700     2.79123103     1.70557902     1.07622844     0.20621592     0.91632068
O       1.92421898     6.71696299     1.42351601     0.15103900     0.27901468     0.77699666
O       1.94846900     2.64564002     1.65208502    -0.23664237     0.68524424     0.29599888
