# total energy = -19906.33804050 eV

CRYSTAL
PRIMVEC
        6.95621157     0.00000000     0.00000000
        0.00003462     6.69841606     0.00000000
        0.00000000     0.00000000    11.88694464
PRIMCOORD
24 1
Ti      2.52131267     3.96947509     4.40997178     0.23064578    -0.93853193     0.79623058
Ti      4.43493352     2.72894083     7.47697326    -0.23064578     0.93853193    -0.79623058
Ti      5.99929723     2.72894314     1.53345326     0.22998501     0.93848694    -0.79648460
Ti      0.95694903     3.96947312    10.35349199    -0.22998501    -0.93848694     0.79648460
Ti      2.52129543     0.62026720     1.53350094     0.23064578    -0.93853193    -0.79623058
Ti      4.43495083     6.07814893    10.35344430    -0.23064578     0.93853193     0.79623058
Ti      0.95693172     0.62026476     7.47692564    -0.22998501    -0.93848694    -0.79648460
Ti      5.99931447     6.07815143     4.41001947     0.22998501     0.93848694     0.79648460
O       2.20169709     2.35862608     6.06581701     1.14862559     1.37930608    -0.47524417
O       4.75454916     4.33978984     5.82112803    -1.14862559    -1.37930608     0.47524417
O       1.27647384     2.35865317     0.12238276    -1.14880197     1.37989307    -0.47561107
O       5.67977249     4.33976282    11.76456201     1.14880197    -1.37989307     0.47561107
O       4.75453185     0.99058174     0.12234422    -1.14862559    -1.37930608    -0.47524417
O       2.20171440     5.70783418    11.76460055     1.14862559     1.37930608     0.47524417
O       5.67975518     0.99055472     6.06585562     1.14880197    -1.37989307    -0.47561107
O       1.27649094     5.70786127     5.82108949    -1.14880197     1.37989307     0.47561107
O       0.25275643     4.07435638     3.21096038    -0.18408360    -0.11538781     0.10773826
O       6.70348983     2.62405961     8.67598466     0.18408360     0.11538781    -0.10773826
O       3.73086838     2.62399726     2.73254994    -0.18485236     0.11539167    -0.10787684
O       3.22537781     4.07441873     9.15439497     0.18485236    -0.11539167     0.10787684
O       0.25273912     0.72514828     2.73251194    -0.18408360    -0.11538781    -0.10773826
O       6.70350707     5.97326770     9.15443290     0.18408360     0.11538781     0.10773826
O       3.22536057     0.72521063     8.67602259     0.18485236    -0.11539167    -0.10787684
O       3.73088569     5.97320529     3.21092245    -0.18485236     0.11539167     0.10787684
