# total energy = -4981.17310094 eV

CRYSTAL
PRIMVEC
        4.08678428     0.00000000     0.00000000
        0.00000000     2.42886780     0.00000000
        0.00000000    -0.00009696     5.53745862
PRIMCOORD
6 1
Ti      2.04339214     1.21438527     2.76872906     0.00000000     0.00000000     0.00000000
Ti      0.00000000     0.00000000     0.00000000     0.00000000     0.00000000     0.00000000
O       2.04339214     0.47333161     1.07916904     0.00000000    -1.01192204     0.19640073
O       2.04339214     1.95543893     4.45828908     0.00000000     1.01192204    -0.19640073
O       0.00000000     0.74101531     3.84789932     0.00000000     1.01168730     0.19501336
O       0.00000000     1.68775523     1.68955880     0.00000000    -1.01168730    -0.19501336
