# total energy = -4985.97631712 eV

CRYSTAL
PRIMVEC
        4.01819823     0.00000000     0.00000000
        1.89090985     3.54547274     0.00000000
       -2.95459179    -1.77275902     5.30667156
PRIMCOORD
6 1
Ti      1.41808758     2.65924110     1.32666754     0.00046768    -0.00046768    -0.00000000
Ti      1.53642856    -0.88652751     3.98000338    -0.00046768     0.00046768     0.00000000
O       0.47276910     0.88636367     0.86441332    -0.00026637    -0.00052913    -2.48185621
O       2.48174687     0.88634990     4.44225764     0.00026637     0.00052913     2.48185621
O      -0.47273091    -0.88634071     3.51774911    -0.00052913    -0.00026637    -2.48185621
O       3.42724680     2.65905419     1.78892181     0.00052913     0.00026637     2.48185621
