# total energy = -4980.63380672 eV

CRYSTAL
PRIMVEC
        4.00074672     0.00000000     0.00000000
        0.00000000     2.37773374     0.00000000
        0.00000000    -0.00009492     5.42088055
PRIMCOORD
6 1
Ti      2.00037336     1.18881927     2.71044003     0.00000000     0.00000000     0.00000000
Ti      0.00000000     0.00000000     0.00000000     0.00000000     0.00000000     0.00000000
O       2.00037336     0.46336673     1.05644969     0.00000000    -1.30689196    -0.62794307
O       2.00037336     1.91427180     4.36443036     0.00000000     1.30689196     0.62794307
O       0.00000000     0.72541499     3.76689091     0.00000000     1.30651376    -0.62538894
O       0.00000000     1.65222354     1.65398914     0.00000000    -1.30651376     0.62538894
