# total energy = -19936.50360889 eV

CRYSTAL
PRIMVEC
        5.73517853     0.00000000     0.00000000
        2.87247822     5.38583835     0.00000000
        0.00000000     0.00000000    10.62209977
PRIMCOORD
24 1
Ti      3.78095433     3.19164282     3.94072327     1.66133564    -3.62437851     0.80821887
Ti      4.82670257     2.19419566     6.68137661    -1.66133564     3.62437851    -0.80821887
Ti      6.11647250     2.19419758     1.37028423    -3.77282121    -0.48665087     1.05181015
Ti      2.49118458     3.19164115     9.25181571     3.77282121     0.48665087    -1.05181015
Ti      2.34471544     0.49872383     1.37032684     1.66133564    -3.62437851    -0.80821887
Ti      6.26294157     4.88711486     9.25177316    -1.66133564     3.62437851     0.80821887
Ti      1.05494541     0.49872176     6.68133400     3.77282121     0.48665087     1.05181015
Ti      7.55271159     4.88711688     3.94076582    -3.77282121    -0.48665087    -1.05181015
O       2.82666868     1.89644528     5.42037623     1.34714594     1.92772233    -1.23777966
O       5.78098829     3.48939325     5.20172365    -1.34714594    -1.92772233     1.23777966
O       2.06386263     1.89646696     0.10936048     1.04920948    -1.17109756     1.06522283
O       6.54379441     3.48937161    10.51273907    -1.04920948     1.17109756    -1.06522283
O       4.34474929     0.79647404     0.10932600    -1.34714594    -1.92772233    -1.23777966
O       4.26290767     4.58936442    10.51277354     1.34714594     1.92772233     1.23777966
O       5.10755541     0.79645241     5.42041064    -1.04920948     1.17109756     1.06522283
O       3.50010150     4.58938613     5.20168918     1.04920948    -1.17109756    -1.06522283
O       1.95557636     3.27597215     2.86929415     0.66075113     1.96180078     1.88376442
O       6.65208060     2.10986637     7.75280568    -0.66075113    -1.96180078    -1.88376442
O       4.20122045     2.10981607     2.44178953     1.29113084     1.13302439     0.55592387
O       4.40643651     3.27602245     8.18031013    -1.29113084    -1.13302439    -0.55592387
O       0.51933736     0.58305295     2.44175562     0.66075113     1.96180078    -1.88376442
O       8.08831959     4.80278552     8.18034403    -0.66075113    -1.96180078     1.88376442
O       2.97019751     0.58310325     7.75283953    -1.29113084    -1.13302439     0.55592387
O       5.63745944     4.80273522     2.86926024     1.29113084     1.13302439    -0.55592387
