# total energy = -19909.16701615 eV

CRYSTAL
PRIMVEC
        6.57998575     0.00000000     0.00000000
        1.38678572     6.86441251     0.00000000
        0.00000000     0.00000000    11.83664179
PRIMCOORD
24 1
Ti      3.20673619     4.06784450     4.39130983    -0.24680697    -1.65034957     0.66636822
Ti      4.76003497     2.79656818     7.44533243     0.24680697     1.65034957    -0.66636822
Ti      6.23979069     2.79657064     1.52696400     0.23306905    -0.13663053    -0.37151477
Ti      1.72698049     4.06784231    10.30967839    -0.23306905     0.13663053     0.37151477
Ti      2.51334348     0.63563850     1.52701147    -0.24680697    -1.65034957    -0.66636822
Ti      5.45342769     6.22877438    10.30963093     0.24680697     1.65034957     0.66636822
Ti      1.03358767     0.63563584     7.44528497    -0.23306905     0.13663053    -0.37151477
Ti      6.93318350     6.22877704     4.39135729     0.23306905    -0.13663053     0.37151477
O       2.57091775     2.41707637     6.04014788     1.73566214     1.87493114    -0.48932431
O       5.39585341     4.44733631     5.79649437    -1.73566214    -1.87493114     0.48932431
O       1.69574068     2.41710401     0.12186488    -0.92888824     0.42606718     0.71214236
O       6.27103055     4.44730873    11.71477705     0.92888824    -0.42606718    -0.71214236
O       4.70246069     1.01513011     0.12182645    -1.73566214    -1.87493114    -0.48932431
O       3.26431047     5.84928257    11.71481547     1.73566214     1.87493114     0.48932431
O       5.57763783     1.01510252     6.04018631     0.92888824    -0.42606718     0.71214236
O       2.38913327     5.84931023     5.79645595    -0.92888824     0.42606718    -0.71214236
O       1.08258772     4.17532473     3.19737236     0.50357594     1.21028633     1.43594751
O       6.88418344     2.68908795     8.63926990    -0.50357594    -1.21028633    -1.43594751
O       4.07232298     2.68902383     2.72098642     0.56941960     1.44487618     0.65939410
O       3.89444818     4.17538885     9.11565564    -0.56941960    -1.44487618    -0.65939410
O       0.38919500     0.74311853     2.72094860     0.50357594     1.21028633    -1.43594751
O       7.57757617     6.12129422     9.11569346    -0.50357594    -1.21028633     1.43594751
O       3.20105545     0.74318258     8.63930765    -0.56941960    -1.44487618     0.65939410
O       4.76571571     6.12123010     3.19733454     0.56941960     1.44487618    -0.65939410
