# total energy = -4985.93866390 eV

CRYSTAL
PRIMVEC
        3.26761256     0.00000000     0.00000000
        1.96917661     4.72602354     0.00000000
       -0.00001255    -0.00006802     5.22961934
PRIMCOORD
6 1
Ti      2.61838822     2.36297760     2.61480961     0.00000000     0.00000000     0.00000000
Ti      0.00000000     0.00000000     0.00000000     0.00000000     0.00000000     0.00000000
O       2.01756727     0.92101901     1.01917576     0.22020067     0.27002764    -0.23078693
O       3.21920917     3.80493619     4.21044341    -0.22020067    -0.27002764     0.23078693
O       0.60081557     1.44193114     3.63398652    -0.21981398    -0.26912570    -0.23076328
O       1.36834846     3.28402427     1.59563271     0.21981398     0.26912570     0.23076328
