# total energy = -19072.89767662 eV

CRYSTAL
PRIMVEC
        7.60600008     0.00000000     0.00000000
        0.00000000     7.60600008     0.00000000
       -1.89786986    -1.89786986     4.85670466
PRIMCOORD
22 1
Ti      3.48138198     6.76147500     1.24978897     0.87192285     1.16614767    -0.68485266
Ti      3.82778797     3.11853901     1.27866099     1.46375323    -1.44683151    -0.16131441
Ti     -0.29905801     6.42866500     1.07119102     1.44884545     0.62208687    -0.73262969
Ti      0.29413100     2.62893702     1.16662300    -1.04298098     0.78437316    -0.23200204
Ti      5.77283023     2.74163225     3.44302182    -0.34266493     1.78810238     0.13385219
Ti      5.58546323    -1.21264777     3.68540881    -0.36931185    -0.05730734     0.48269986
Ti      1.97713220     3.12120320     3.68128382     0.76110750     0.41382229    -0.07845416
Ti      1.49810921    -0.60874778     3.75015979     2.40378720    -0.79508798     1.64257969
O       3.59403800     4.92877601     0.77070100    -0.36890330     1.02236896     0.85966280
O       4.12129698     1.20597098     0.86632698    -1.92177743    -1.17113972    -1.11064936
O       0.00234198     4.37993601     0.51114098     0.50285989     0.22158958     0.07900206
O      -0.29472802     0.90002202     0.94180602    -0.05679338    -1.35438977    -0.68597058
O       5.94690822     4.57559623     4.11598780    -0.05088832     1.01571777     0.22844749
O      -0.30071979    -0.66422477     3.86392983     0.01368264     1.01247946    -0.68294387
O       1.80697822     5.00568922     4.17878182     0.06570868     0.65958205    -0.21583519
O       2.06808322     1.28554924     4.15275281    -0.78312078    -1.84446484    -0.88745669
O       3.99648820     3.38376122     3.43079481    -1.81271890    -1.24745909    -1.32886513
O       0.29755325     3.25342523     2.91346081    -3.02962762    -0.78692575     1.78592440
O       5.56251397     6.47663201     1.74443699    -0.56914655    -0.30993503     0.52333102
O       5.63072699     2.96192699     1.56000099     1.64785354    -0.02845518     0.91726325
O       1.64032401     6.63356402     1.80338400     0.11093646     0.46359913     0.55542302
O       2.05957802     2.59809202     1.68769199     1.05747661    -0.12787335    -0.40721121
