# total energy = -19961.31857026 eV

CRYSTAL
PRIMVEC
        7.60600008     0.00000000     0.00000000
        0.00000000     7.60600008     0.00000000
       -1.89786986    -1.89786986     4.85670466
PRIMCOORD
24 1
Ti      3.74204602     6.63598998     1.25970501    -0.90075342     0.48061109     0.59820440
Ti      3.78762400     2.95310402     1.21642901     0.00935522    -0.27302118     0.93461280
Ti     -0.00950302     6.63221001     1.21820498     1.11240774    -1.09100998    -1.19105138
Ti      0.05412102     2.75173699     1.17678802    -0.40876185     1.25098408    -0.45252975
Ti      5.75105025     2.83526323     3.59166480    -0.22699147    -0.11703332     0.47090492
Ti      5.77595122    -0.99885979     3.58635482    -1.34734366     0.00776782     0.33739725
Ti      1.85459825     2.91888922     3.69816384     0.26938846     0.20121615    -1.52914592
Ti      1.82199622    -0.94464378     3.76191080     1.33454496    -0.28692622    -1.20648752
O       3.63979199     4.81483102     0.77489298     0.55054564    -0.71142425     0.39618812
O       3.71310299     0.99931499     0.80152499     0.26170575     0.13005416     0.42362823
O       0.16607598     4.65144898     0.66616002    -0.75240431     0.59690008     0.60515898
O       0.11922702     0.86824800     0.78307300    -0.50430536     0.30717238    -0.38052778
O       5.90429220     4.68840825     4.08301582    -0.47145076     1.16009580    -0.05456886
O       5.72281722     0.90814923     3.87533979    -0.32836548    -0.89811238     0.62420751
O       1.69113323     4.78418023     4.07272179     0.37052439     0.59516252     0.33572063
O       1.90539323     1.08213324     4.08727380     0.24686868    -1.54978031     0.02889844
O       3.81478223     3.04884822     3.19674580    -0.36511787    -0.31485767    -0.23201669
O       3.75158624    -1.18143176     3.19690783     0.22105556     0.78709596     0.75719942
O       0.02847323     2.88477422     3.11752579    -0.01965403    -0.45333065     0.77274894
O       0.01630824    -0.86117776     3.18545479    -0.37070616    -0.05652855     0.16759588
O       5.63662498     6.56607799     1.62577401     1.25258407     0.02516751    -0.19085460
O       5.79818798     2.94717797     1.64233202    -1.73334892    -0.29037690    -1.11695756
O       1.88636301     6.51307502     1.65963300    -0.60608637     0.75029806     0.18283507
O       1.82414198     2.88686600     1.65375601     2.40630971    -0.25012498    -0.28116103
