# total energy = -4989.73495733 eV

CRYSTAL
PRIMVEC
        3.77525290     0.00000000     0.00000000
        0.92928462     3.65909340     0.00000000
       -2.35230314    -1.82957344     4.85674476
PRIMCOORD
6 1
Ti      0.69684088     2.74446018     1.21418611     0.00053222    -0.00053222     0.00000000
Ti      1.65539368    -0.91494008     3.64255833    -0.00053222     0.00053222     0.00000000
O       0.23236074     0.91476814     0.79112398    -0.00027151    -0.00004011    -0.50451799
O       2.11987365     0.91475188     4.06562047     0.00027151     0.00004011     0.50451799
O      -0.23233377    -0.91474716     3.21949620    -0.00004011    -0.00027151    -0.50451799
O       2.58456815     2.74426712     1.63724824     0.00004011     0.00027151     0.50451799
