# total energy = -19072.53884321 eV

CRYSTAL
PRIMVEC
        5.17600016     0.00000000     0.00000000
        0.00000000     5.50899976     0.00000000
        0.00000000     0.00000000     9.26300011
PRIMCOORD
22 1
Ti      1.73865101     3.40230200     3.27355699    -0.84840805     0.67476673     0.93058877
Ti      4.00111199     2.19183100     5.99998401    -1.37529208    -0.38748853    -1.47675453
Ti      4.31136401     2.10560099     1.35690397     1.48871556    -1.73662168    -0.75551920
Ti      0.95305098     3.31807799     8.28004802     0.35533019    -0.42410722     0.22126125
Ti      1.77896099     0.59437501     1.38858799    -1.40546630     0.47028348    -2.19185623
Ti      3.31189799     5.40585100     7.81299200    -0.18185162     0.53790481     1.06157598
Ti      1.06896101     5.47357902     6.01981599    -0.72848661     1.71853730    -0.01322962
Ti      4.15480099     4.95863499     3.54373600     2.16957864     0.04504189     1.07797834
O       3.24364402     3.35157301     4.35158100     0.79183168     0.63453615     1.79278153
O       0.90697599     1.81788398     0.17801401    -0.48917801     1.98054824    -0.51725087
O       4.41552001     3.87812998     8.09691401    -0.25086649    -1.31661228    -0.62189172
O       3.41701302     0.74380699     0.19458599     0.34189386     1.38704254    -0.18268672
O       1.66818101     4.76896099     9.12856898    -0.25623161    -1.21411984    -0.49009950
O       4.12109298     0.94560101     4.61076800    -0.24810075     0.39499590     0.49312800
O       0.82131701     4.97895799     4.32224299     0.35274854    -1.58405082    -0.58577234
O       5.06436397     3.45343201     2.26633699     1.03506815     0.96870076     1.03641798
O       4.97247399     0.88917902     7.13624700     0.01802781     0.03353285    -0.34185632
O       2.66312600     2.08785101     2.34177099    -0.33180176    -1.03845018    -1.42605081
O       1.78369601     3.91457601     6.52533499     0.62818424    -1.10837676     2.38580516
O       5.13734403     0.62392601     2.12914202     0.20605137    -0.17695444     0.63635367
O       2.51096198     1.14330899     6.51982700    -0.92941351     0.12223183     0.42143276
O       2.56434998     4.89798102     2.58493202    -0.34233326     0.01865953    -1.45435558
