# total energy = -39035.85294243 eV

CRYSTAL
PRIMVEC
        7.60600008     0.00000000     0.00000000
        0.00000000     7.60600008     0.00000000
       -3.79573973    -3.79573973     9.71340985
PRIMCOORD
46 1
Ti      1.92950144     4.82156443     6.00762364    -0.44998899     1.17933280     0.55151597
Ti      3.74910800     6.78115399     1.32632197    -0.22233391     1.64771675    -1.45327649
Ti      1.93606546     1.09710245     6.03175560    -0.47763067    -1.78293523     0.35270972
Ti      3.85083502     2.94601500     1.25871900     0.70568503    -0.99660084    -2.53581674
Ti     -1.99696455     4.66415743     6.05590762     0.13942378    -0.44312311     1.73083618
Ti      0.00477403     6.76611599     1.26994401     0.03219845    -1.01818525    -0.04701084
Ti     -2.00694356     0.87055743     5.98840763     1.02640713     0.25634345     0.42662562
Ti      0.04652098     2.94632499     1.18657002    -0.97854680     0.62744479    -0.23037941
Ti      3.82380248     0.96222744     8.53706163     0.23580984     0.14161410    -0.05755494
Ti      5.69423402     2.79713601     3.57502498     1.03267805    -0.37989529     0.08620449
Ti      3.61961245    -2.88407957     8.59500061     1.39154480     0.14930196    -1.43261844
Ti      5.64784000    -1.07038799     3.55283700     1.71580191     0.15741379     1.16079592
Ti     -0.02777154     0.95020342     8.36876760     0.04233657    -0.62322175    -0.12970629
Ti      1.95118701     2.61878999     3.37747200    -0.82079491     0.95151858     2.25326962
Ti     -0.00164357    -2.86775254     8.57947863    -1.17711960     1.05538219    -0.04963028
Ti      2.03553099    -1.08006500     3.69431000    -1.52065202     1.46920320     0.70859167
O       2.08288844    -0.84645256     5.76489861    -0.27078509    -1.77583230    -1.35007160
O       3.96530299     1.08860100     1.04364200    -0.60232073    -1.52410758    -1.66815369
O      -2.04800454     2.71663444     5.74409263     0.52691385     0.23993904    -0.99077651
O      -0.08311602     4.86844700     0.82749600     0.34602793    -1.17923793    -0.75863589
O      -2.09638156    -1.10343257     5.70443164     0.30833683     1.14328927    -1.33108811
O      -0.10186202     1.03089999     0.79740000    -0.34090372    -0.80342478     1.17587261
O      -3.44903057     2.92174143     8.98447660    -1.35724267    -0.47042592    -0.14162079
O       5.74896302     4.58622598     4.12127100    -0.19758061     1.59012145    -1.10425399
O       3.83254745    -1.02692555     8.92379564     0.13936361     2.18473247     0.07607306
O       5.73867798     0.94760702     3.97004802     0.38033649    -1.15431185     0.58945236
O      -0.16716455     2.73182347     9.16175061     0.43913661     0.33854191    -0.78328301
O       1.91897599     4.74800901     4.09045701     0.41121391    -1.30630112    -0.42183025
O       0.07393643    -0.89657157     8.86729464    -0.69475244     0.55093593     0.73091245
O       1.89845598     0.92094400     4.07963301    -0.21121466     0.83259473    -0.63444951
O       1.87896744     0.95526543     7.94282061     1.11248024     1.00472655     1.74815231
O       3.87578901     2.77157199     3.11424299    -1.08365045     0.44951307     1.60440856
O       1.81040343    -2.64615655     8.25034662     1.34942163    -1.23420222    -0.07488804
O       3.84472599    -0.62658301     3.26015600    -0.89636737    -1.42936445     0.78117162
O      -1.90795757     0.87162843     8.07929563    -0.14786651    -0.12105144    -0.15766833
O       0.10403302     2.87217398     3.17863598    -1.15450699    -0.34707514    -0.28490765
O      -1.90577757    -2.79789157     7.91217860     0.66104270     0.05682834     1.48878241
O       0.01053899    -1.05626901     3.15274899    -0.76765867     0.36726628     1.03160153
O       3.69983847     4.44719746     6.51271465    -0.39506660     0.08323307     0.21588713
O       5.57874400     6.51964898     1.60493501     1.21884425    -0.25706953     0.39200802
O       3.83333343     0.91821847     6.58191060    -0.62216863     0.52484360    -0.77457520
O       5.66021798     3.14103402     1.56385800     1.49622087    -0.01966740     0.55795248
O       0.14855143     4.66011944     6.56359562    -0.78018406    -0.68041854    -0.38076638
O       1.85861603     6.68713501     1.68201100     1.18280817    -0.19028484     0.22417251
O       0.04909844     0.96775644     6.42573362    -0.88247415     0.29667970    -0.53461045
O       1.91657797     2.91237901     1.49335799     0.15777735     0.43821899    -0.55942340
