# total energy = -39031.87393685 eV

CRYSTAL
PRIMVEC
        5.93200024     0.00000000     0.00000000
        0.00000000     9.29399984     0.00000000
        0.00000000     0.00000000     9.29399984
PRIMCOORD
46 1
Ti      4.47155798     7.15070000     6.94842099    -1.00786844    -0.97741371     0.04722887
Ti      4.50356902     6.56406998     2.25852602    -0.16749021     2.81978619     2.72383618
Ti      4.45563397     2.21926800     7.16497397    -0.61323918     0.64374225    -1.52575360
Ti      4.52682699     2.65353101     2.04156101    -0.77324285    -1.25089152     1.93403080
Ti      1.48290700     6.98691202     6.99151300     1.37019615    -0.33036065     0.55047673
Ti      1.52465501     7.09781699     2.11620797     0.04093095     0.53019458     0.73727105
Ti      1.47372599     2.39720602     6.77027903     0.24452820     0.26104574    -0.12213207
Ti      1.46360098     2.02557002     2.73955200     0.42902137     0.78625007    -1.57128811
Ti      3.00190099     4.67177399     4.76319502     0.56214543     0.18400107    -1.59193485
Ti      2.86712102     4.87240302     9.11294798     1.14109971    -1.74029399    -2.28845107
Ti      2.87413802     9.18965402     4.55860599     1.41353082     0.15365201    -0.21827825
Ti      2.96343102     0.12424098     0.10490902    -0.50641007    -0.42221283     0.84848441
Ti      0.06606799     4.65848301     4.77434701    -1.07296983    -0.38503647    -1.33682656
Ti      0.00418198     4.66026100     9.14581899    -0.12087300    -1.53882304    -1.27656579
Ti      5.85837200     9.07511800     4.91935703    -2.05685064     0.09075458    -0.32500324
Ti      5.90708901     0.06194401     9.15178398     0.23688405    -1.02467858     1.55700692
O       4.36783098     5.53036201     5.59020000     1.15353255     1.02625544     0.00305396
O       4.42998698     5.32662401     0.95146900    -0.19200003    -0.92373600    -0.72886842
O       4.52584701     0.96000802     5.76398800    -0.01066854    -1.39572927    -1.63052507
O       4.61174999     0.81482099     1.13059402    -0.91837371     1.37214967    -1.32794982
O       1.47368397     5.75379001     5.47849899     0.01306507    -0.67584943    -0.02192535
O       1.47617000     5.69377200     0.59781800    -0.91689687     0.32392107     1.60070437
O       1.34169002     0.77191699     5.50565197     1.13193656     2.70780766     0.41791832
O       1.49435501     0.63109499     1.30745998     0.06057701     1.43960465    -1.29487077
O       4.28377303     8.34023098     8.35632098     0.96968986     1.20313763     1.27441326
O       4.29009003     8.14377900     3.99812198     1.42635317     1.14739352    -0.58631587
O       4.35233101     3.90787800     8.20752798     0.91671175    -0.97011538     1.08547259
O       4.58165902     4.01401000     3.62497899    -1.40577483    -1.51391881    -1.01661920
O       1.47457998     8.39287401     8.42880901     0.86539019     0.56904782     0.85987158
O       1.35503799     8.30870202     3.88338302     0.41139234     0.11498826    -1.33522116
O       1.53194401     3.53411900     8.34020198    -0.11588635     2.76643012     0.94649722
O       1.45477700     3.68958900     3.73594900    -0.02012403    -0.19495140     0.56864004
O       2.94372001     5.97596598     7.59586099     0.57921654    -0.04142280     2.00781171
O       2.81376699     6.06461698     3.11040503     1.09254904    -0.44381834    -0.20166018
O       2.84874301     1.46166398     7.78623299     0.23812718    -0.88986916     1.14026205
O       3.17322101     1.47349897     3.27360398    -0.50780129    -0.03226041     0.29077722
O       5.90133701     6.03407298     7.80607301     0.30855589    -0.42415119     0.41015718
O       0.05095501     6.06123998     3.26407101    -0.19165550     0.52603273    -1.30613426
O       0.10947598     1.56608600     7.92980798    -0.55287095    -1.31068871     0.94292287
O       3.07314301     7.99372000     6.06785798    -1.46405173    -0.46134812     0.86993771
O       3.06003698     7.90260197     1.33469298    -0.09532394    -1.17487760     0.71310498
O       3.00489999     3.27042098     5.97541601    -0.92018556    -0.68816064     0.30862711
O       0.14805501     8.12148302     6.52318098    -2.13839706     0.63311331    -2.60218414
O       0.02844502     7.92393300     1.42718702    -1.21713472    -1.55024491    -0.10098783
O       5.70816297     3.17914700     5.95274298     2.03118768     0.44981698     0.60100664
O       0.19844300     3.06297000     1.37860601     0.34946781     0.61172789    -0.03001790
