# total energy = -19960.41825306 eV

CRYSTAL
PRIMVEC
        5.93400000     0.00000000     0.00000000
        0.00000000     9.29699974     0.00000000
        0.00000000     0.00000000     4.64899994
PRIMCOORD
24 1
Ti      4.39110203     7.04242298     2.25162602     1.04490905    -2.06794058    -0.34354245
Ti      4.48150698     2.25381300     2.39311399    -0.28656704     2.28145072    -0.42001634
Ti      1.49514000     7.03719000     2.40324001    -1.07543037    -1.98038677    -0.19065148
Ti      1.43878299     2.31855202     2.35127502     0.72832438     2.01122460    -0.86106868
Ti      2.96159102     4.64309602     0.01523300     0.06098993     0.38774513     0.56909718
Ti      2.98164800     9.28713800     4.62295998    -0.46744755    -0.37521485     0.08002022
Ti      0.01980398     4.70042999     4.58638700    -0.07053027     0.60887551     0.35172499
Ti      5.93088998     0.02580099     0.05705298     0.79826458    -1.12371365     0.25351704
O       4.47045501     5.60855499     0.87373498    -0.02162067    -0.54206254    -0.75518907
O       4.52682001     0.92886102     0.87578602    -1.51709464    -0.79634936    -0.30215230
O       1.51068997     5.53166802     0.91291902    -0.04624028    -0.05227106    -0.66030890
O       1.48212001     0.92334397     0.90377399     0.49148069    -0.80308771    -0.70138820
O       4.46544698     8.27063501     3.59439398    -0.72810275     2.54854859     2.77643840
O       4.47225099     3.66445202     3.76858600     0.10150745    -0.05848053    -0.21844512
O       1.36520502     8.26860102     3.80431198     1.45169501     1.46746616     0.59903023
O       1.52202998     3.77212001     3.75945002    -0.35922670    -0.97861031    -0.66133246
O       2.97949700     6.05634203     3.23924101     0.09256232     0.26769282    -0.40427218
O       3.01378700     1.45454099     3.16960202    -0.72905457    -1.86582506     1.48699369
O       0.03994399     5.99762002     3.04084700    -0.46710277    -0.48681311     1.44208833
O       0.03033800     1.31693501     3.27885701    -0.17403624     0.74114981    -0.93151771
O       2.88886000     7.84471199     1.35461999     0.72922426     1.30554445    -0.80431079
O       2.90306200     3.15607397     1.39310398     0.53139631     0.08123532     0.31574958
O       0.02684701     7.89345800     1.49498600    -0.29901787     1.03733792    -1.35361150
O       5.93386898     3.32985102     1.44736402     0.21111850    -1.60751523     0.73314725
