# total energy = -39035.11830303 eV

CRYSTAL
PRIMVEC
        5.93200024     0.00000000     0.00000000
        0.00000000     9.29399984     0.00000000
        0.00000000     0.00000000     9.29399984
PRIMCOORD
46 1
Ti      4.42440199     7.08053300     6.89685097     1.87923722    -0.14698591    -0.98926548
Ti      4.47863101     6.90829401     2.42580402    -2.17474656     1.46922479    -1.24908917
Ti      4.49964199     2.29470502     7.20054998    -0.00502188    -0.56909410    -1.37429526
Ti      4.30306699     2.60110902     2.05251001     0.25058598    -1.66538590     1.39207419
Ti      1.50317598     6.84351398     7.03135899    -1.24737013     0.84687413    -0.06509984
Ti      1.45571100     7.03289800     2.37909498     1.67088600     0.82351873    -1.53421613
Ti      1.49992302     2.45039902     6.82980702    -0.03564553    -0.21495587     0.20526487
Ti      1.35712099     1.97716798     2.54780901     0.71679889     0.07396527    -0.25575313
Ti      2.89800201     4.61519801     4.70199398     1.28258423     0.66168084     0.99541941
Ti      2.96578501     4.89245900     9.08313101    -0.34038153    -0.98841367     1.03925365
Ti      2.97366901     0.01119898     4.72006099     0.84146144     0.90469672     0.41972812
Ti      2.97574799     9.28054302     9.21236298    -0.53997814    -0.81842075    -0.05891222
Ti      5.90108899     4.55549602     4.51338198    -1.24370400     0.20876954     1.94466308
Ti      0.01462101     4.66100100     0.02197102     0.73033472     0.61199400    -0.51367215
Ti      5.92510702     9.09699900     4.76757301    -0.80032275     0.88903844     1.28324063
Ti      0.00380299     0.04512300     0.02418001     0.58570215    -0.74045973    -0.41456046
O       4.50811301     5.51723598     5.61127602     0.19692266     0.32126254    -0.83660360
O       4.46635902     5.69133101     0.73259399     0.20728190    -1.10085602     1.41542367
O       4.45736798     0.83294002     5.59749402    -0.56961449    -0.15218262    -0.53893248
O       4.37031197     0.90412399     0.84696502     0.49235307     1.51530181     0.55245186
O       1.45883902     5.46045902     5.54148601    -0.47567252     0.56513331     0.47430340
O       1.52988101     5.72865902     0.65736001     0.11705620    -0.72786209     1.55196961
O       1.41446798     0.90614799     5.61168999     1.11600548     0.12644921    -1.48583387
O       1.53772501     0.97076302     0.90548498    -0.27890052    -0.47017395     0.41302345
O       4.50339201     8.29395300     8.41401601    -0.30367953     0.74603440    -0.26292265
O       4.52553702     8.19675600     3.94004600    -0.89867185     0.75537419    -1.08807815
O       4.51345199     3.77076902     8.38375898     0.00882274    -0.37345287     1.17641203
O       4.32364600     3.79703600     3.66820097     0.77797625    -0.51531226    -1.27774670
O       1.41992798     8.42491802     8.26543299     0.69996407    -0.07006850     1.21136388
O       1.35979302     8.40084601     3.73604002     1.27003647     0.35295783    -0.79302133
O       1.59177199     3.73761702     8.34959101    -0.40578811     0.29263767     0.51414215
O       1.47411203     3.73436501     3.77515098     0.17715962    -1.25669039    -0.68040439
O       3.12707702     6.07596699     7.74414202    -0.92152819    -0.37121370     0.21271901
O       2.97851500     6.18233601     3.37663902    -0.49516431    -0.61726013    -0.87058819
O       2.94543100     1.38442998     7.81234900     0.18851695    -0.09155727     0.40143548
O       3.01580602     1.47358798     3.26480302     0.63680567    -0.10530265    -0.44359491
O       0.06212700     6.06180202     7.91418302    -0.33335959    -0.39155859    -0.40280794
O       5.92837898     6.09161201     3.16368502     0.94636429    -1.67013318     0.62553420
O       0.14879401     1.40755597     7.80241300    -0.80945300     0.25427963     1.03368901
O       2.93309397     7.82210200     6.03901697    -0.00097291     0.62211566    -0.44150177
O       3.01511602     7.84641298     1.40841102    -0.56187007     0.31767045     0.40341832
O       3.15626898     3.30516400     6.18212502    -1.53858316    -0.19438576    -0.97884582
O       0.16716402     7.90995002     6.12591899    -0.73755335    -0.91602372     0.15725696
O       0.00400503     7.92479302     1.39008402     0.24658277    -0.03329503     0.74491340
O       5.79722102     3.17770902     6.02469701     1.36779962     0.25970697    -0.36026671
O       0.16790699     3.06008403     1.62147000    -1.68925654     1.58235877    -1.25168805
