# total energy = -39031.68202385 eV

CRYSTAL
PRIMVEC
        5.93200024     0.00000000     0.00000000
        0.00000000     9.29399984     0.00000000
        0.00000000     0.00000000     9.29399984
PRIMCOORD
46 1
Ti      4.47927798     6.82325798     6.95171898    -0.40970133     1.75209818    -0.68946034
Ti      4.41985402     6.99003798     2.33379799     1.61328041    -1.17899316    -1.28677822
Ti      4.48318501     2.40603200     7.06592501     0.50343915    -0.74103900    -0.37669889
Ti      4.38077301     2.49830999     2.27004298     0.73247208    -0.64921613    -0.83947012
Ti      1.50085802     7.05218799     7.08547499    -0.15117784     0.26846312    -0.87415560
Ti      1.59610601     7.03883198     2.27484198    -2.06536691    -0.63987120    -0.68572555
Ti      1.53495101     2.29321898     7.01179600    -0.34333419    -0.76550074    -0.77588260
Ti      1.45857602     2.23177499     2.55676597    -0.99619023    -0.17175310    -1.36881675
Ti      2.86277097     4.74741998     4.57207001     2.19301040     0.27056474     1.78098351
Ti      2.92845500     4.67989098     9.04489700     0.68549672     0.59993706     3.82208819
Ti      2.98034199     0.02091901     4.70627301    -0.53375453    -0.02688218    -0.39613798
Ti      2.94194600     0.02608500     0.08856702     0.64119660    -0.10696025    -1.59383850
Ti      0.04085000     4.57297099     4.42929301    -0.47584324     1.33870166     1.45666675
Ti      0.03863100     4.56528500     9.10971402    -0.97908905     0.94410429     2.99968300
Ti      5.89396002     9.17426899     4.67338703     0.22881901    -0.23473461     0.30127427
Ti      5.83672997     9.26396501     0.13730901    -0.88098111     0.20352115    -1.92395695
O       4.62162000     5.76777701     5.46608698    -0.56267637    -1.86615802    -0.32303095
O       4.57114501     5.44444702     0.98461100    -0.68415589     0.02051304    -0.55261846
O       4.31951101     0.58808600     5.74037198     0.71422701     2.18885987    -0.65661962
O       4.41103899     0.94110999     0.81640201     0.09540956     0.99710297     2.19666779
O       1.56993602     5.60025098     5.40196599    -1.24683534     0.08161636     0.84467944
O       1.68984198     5.68855902     0.72236902    -1.31093734    -1.36697224     0.96271265
O       1.24739498     0.97112201     5.44816200     1.68875826     0.36579690     0.10874305
O       1.80661801     1.15877599     1.07805799    -1.66913148    -1.00511119    -0.86297670
O       4.26330302     8.31110300     8.53309402     1.23272898     0.38702753    -1.05801988
O       4.48104702     8.49482699     3.61898098    -0.74667769    -0.20215229    -0.34042704
O       4.39449199     3.60947601     8.63172001     1.37170539    -0.68812002    -1.09469103
O       4.50246902     3.55084999     3.79110599    -0.19028150     0.58853859    -0.00959767
O       1.37889399     8.26534499     8.39575501     0.68031235     1.72418448     0.80672917
O       1.55080002     8.45486601     3.49302701    -1.29229992     0.21788385     0.98763437
O       1.58712598     3.80267502     8.19395998    -2.23680916    -0.42428540     1.58118198
O       1.64623698     3.55351398     3.94011902    -1.29956509     0.38715249    -0.95421798
O       3.00836801     5.93681200     7.90177598     0.37677705     2.80558675    -3.32771475
O       2.94334599     6.08297700     3.22976000     0.09993676    -0.25139896    -0.27501841
O       3.09269500     1.51101103     7.92020098    -1.96711551    -1.76189280     0.57241596
O       2.91911798     1.44422198     3.34350401     1.71118626     0.10887135    -0.10120611
O       5.84820799     6.16685000     7.98684302     0.28424096    -1.23822934    -0.61255424
O       5.84977102     6.02707201     3.11235002     1.39128666    -0.79241455     1.03348564
O       5.77479602     1.35093999     7.99073697     1.82234743     0.59181083    -0.57620500
O       2.79754702     7.84385198     6.05346298     0.46579896     0.04478221    -0.16161729
O       2.99517297     7.81518602     1.36198302    -0.19214838     0.64734102     0.04646191
O       2.96729200     3.33853302     6.38914599     0.73504473     0.35163731    -2.84967270
O       5.88778002     8.00429502     5.97143601     0.72464667    -2.26356432     1.76794055
O       5.83865200     7.81812502     1.21469701     0.79680033    -0.36837700     1.96117446
O       0.10602701     3.23395198     6.11006003    -1.13166813     0.31628154    -0.02456819
O       0.03565401     3.20167101     1.35369600     0.57681949    -0.45875079     1.36115460
