# total energy = -39033.80946332 eV

CRYSTAL
PRIMVEC
        5.93200024     0.00000000     0.00000000
        0.00000000     9.29399984     0.00000000
        0.00000000     0.00000000     9.29399984
PRIMCOORD
46 1
Ti      4.42554300     6.98605502     6.97277002     2.66498310    -0.21355899    -0.62148034
Ti      4.41804202     7.01419301     2.39713198     2.15943692     0.40516256     0.24589346
Ti      4.48875100     2.27954298     6.82790802    -0.78741015    -0.79689444     1.19009210
Ti      4.14753899     2.49358099     2.13612801     0.86442063    -0.68924128     0.64256854
Ti      1.60393598     6.86597099     6.90179598    -2.31669131     1.15139956     0.93538876
Ti      1.57159198     6.90273601     2.37937698    -2.31503654     0.58539336    -0.59959768
Ti      1.54775000     2.44654100     7.03459602    -0.06216518    -1.46872574     0.36913265
Ti      1.21545400     2.02974697     2.43262401     1.14402717     1.11241802    -0.69945628
Ti      2.93330602     4.54294901     4.66387702     1.07630763     0.69858827    -0.21848780
Ti      3.03211701     4.90372402     9.15087401    -0.76842640    -1.88602700     1.00303605
Ti      3.03982299     9.25027101     4.73735900    -0.91822150     0.98517691    -0.93536356
Ti      2.91105099     9.18924698     9.18318398    -0.53247283     0.12148390    -0.51709917
Ti      0.06374400     4.58979501     4.69887601    -1.25525674     0.86698325    -1.24793578
Ti      5.91398297     4.77739798     0.01967698     0.33640815    -0.43914201     0.24952257
Ti      0.09430399     9.08181500     4.78222699    -0.24044169     1.10041354     0.74924545
Ti      5.89036002     0.22469300     0.00479498    -0.82865631    -1.17062165     0.97961638
O       4.34747999     5.52664100     5.80727602     0.59854995    -0.61702308    -1.19947972
O       4.30445999     5.73416600     0.90898999     1.35967776    -1.01274891     0.21187826
O       4.48746197     0.86153602     5.44348899     0.18137571     1.65754866     0.91521665
O       4.46046102     0.87393099     1.04319902     0.86119544     1.06158472    -0.88568520
O       1.44913999     5.53901099     5.62846502    -0.23589443    -1.52952541    -1.16684084
O       1.55984700     5.69880903     0.90718899    -0.24509281    -0.92464103    -0.19659716
O       1.52160500     1.01313800     5.57957899    -0.18029019    -0.79461824    -0.74201551
O       1.59846498     1.01618003     0.76209102    -1.55934945     0.26184664     0.66888045
O       4.39466402     8.37714898     8.61205801     1.91836686    -0.85866958    -1.73362069
O       4.52806601     8.35132502     3.92464900    -0.49902791    -0.84451386    -1.90185600
O       4.37545600     3.76665599     8.40554801     0.57499015     0.41791009     0.47156029
O       4.36674500     3.78061299     3.70260702     0.15892303    -0.96649501    -0.33854216
O       1.60907000     8.36198403     7.96889799    -0.02006335     2.01934132     3.45939128
O       1.43469202     8.47621598     3.76610797     1.05485614    -0.50619615    -0.64319435
O       1.56729098     3.81494902     8.43804003    -0.83991724    -0.47784664    -0.42543108
O       1.46647499     3.71485398     3.72028900    -0.17607718    -1.08307787    -0.10016559
O       3.04949699     6.13303801     7.90756698    -0.65918841     0.63066664    -0.65717215
O       2.97038102     6.03126400     3.40956300     0.33481972     0.96059561    -0.77318089
O       3.13344101     1.31119899     7.81464002    -0.93145986     0.85484584     0.10235026
O       2.94206199     1.21553898     2.98941198    -0.44985375     1.80789268     0.85607071
O       0.04736200     6.20739800     7.97163902    -0.28922607    -1.03590093     0.31854180
O       0.02593302     5.93674802     3.12501402    -0.05186817     0.25097550     1.11412138
O       5.91034001     1.41675302     7.79593900     0.41978905    -0.15306168     0.70244313
O       2.98901901     7.81451502     5.99752001     0.53827479     0.47638497    -0.53555764
O       3.05280001     7.92285401     1.54404100    -0.73436133     0.05936859    -0.02363153
O       2.96807698     3.10037601     6.00905199    -0.12074548     1.02273971    -0.15897882
O       0.03660901     7.80776902     6.00431200    -0.20649411    -0.65229683     0.95534464
O       0.15650798     7.98395901     1.52965701    -0.63169097    -0.23445153    -0.25605369
O       5.87980299     3.20437600     6.03072302     1.28446165     0.66518989    -0.14140841
O       5.84795700     3.28512099     1.41400199     0.32451525    -0.81863261     0.57853725
