# total energy = -19961.58909698 eV

CRYSTAL
PRIMVEC
        7.60600008     0.00000000     0.00000000
        0.00000000     7.60600008     0.00000000
       -1.89786986    -1.89786986     4.85670466
PRIMCOORD
24 1
Ti      3.81278802     6.64601900     1.17059897    -1.05600028     0.35619305     0.62590239
Ti      3.79945000     2.90674899     1.17748701    -0.41819600    -0.45905187     1.11030843
Ti      0.00011102     6.67778599     1.22358099     0.87054037    -0.82117594    -0.33069901
Ti     -0.02195900     2.78743799     1.25812600     0.39087776     1.19114137    -0.58327631
Ti      5.76794423     2.77556024     3.68951279    -1.41879207     0.23623587    -0.01528958
Ti      5.74849623    -0.99834379     3.62523983    -1.22202959    -0.05997409    -0.30274545
Ti      1.83914024     2.82146123     3.62612879     1.94757100     0.56186030    -0.31112725
Ti      1.87573422    -0.93228977     3.72064784     1.09032092    -0.34489305    -1.05008109
O       3.79674702     4.75644198     0.70453701     0.13416793     0.73163647    -0.13953742
O       3.67405002     1.03083199     0.85209602     0.60797871    -0.86913012    -0.46539273
O       0.01253700     4.70806502     0.85450198    -0.30621361     0.89275394    -0.91131551
O      -0.02872300     0.98799102     0.74288802     0.03747950    -0.87762119     0.39721219
O       5.85648220     4.71354121     4.07694182    -0.07264500     0.13846681     0.26861405
O       5.67967122     0.91185220     3.96644379    -0.02145843     0.57002484     0.53369102
O       1.75916124     4.80760320     4.04270781     0.20074641    -0.80823969     0.53374579
O       1.91211320     0.92275225     3.98854684     0.24358538     0.99107708     0.28068744
O       3.71087420     2.85255325     3.14120081     0.90831195     0.06974454     0.44424051
O       3.85948220    -1.11670777     3.25884379    -0.42572599     0.25225385    -0.10462311
O       0.01519220     2.70812025     3.25392081    -0.55926760    -0.05755391    -0.71651864
O       0.05979422    -0.86623776     3.17028783    -1.36313898    -0.16424984     0.02854954
O       5.63621799     6.68768001     1.61736698     1.51172257     0.03667294    -0.23752940
O       5.71408002     3.00799298     1.63905202     0.08800247    -0.56428793     0.42377709
O       1.92827898     6.72485397     1.67172999    -0.24358306    -0.24188150    -0.28885198
O       1.90123099     3.06071602     1.49462003    -0.92425434    -0.76000218     0.81025878
