# total energy = -19960.15734598 eV

CRYSTAL
PRIMVEC
        7.60600008     0.00000000     0.00000000
        0.00000000     7.60600008     0.00000000
       -1.89786986    -1.89786986     4.85670466
PRIMCOORD
24 1
Ti      3.81157599     6.66483702     1.31022202     1.21613867     1.98573184     0.82293895
Ti      3.78301201     2.98879501     1.11122000     1.26131169    -1.46886741     1.87196151
Ti      0.06272100     6.50528098     1.27344801    -1.21426691     0.46850556    -1.18252174
Ti      0.05980603     2.85449099     1.17949402    -1.29482063    -1.03384122    -1.63566110
Ti      5.69124423     2.90027324     3.59271680    -0.87799529    -3.04898110    -1.51364730
Ti      5.72886222    -1.14219576     3.67973582    -2.64742117     2.20586206     0.02463940
Ti      1.87529421     2.99798423     3.61896283     1.32089445     0.53348405    -0.54236001
Ti      1.76319923    -0.87397078     3.68370481     3.16733776    -0.92953358     0.95907274
O       3.73977802     4.91331398     0.73775998    -0.34063710    -2.23516545    -0.46532845
O       3.94191002     1.00415098     0.93666299    -0.94455475    -0.07048039    -1.39574418
O       0.17775403     4.68994001     0.67606802     0.29101659     0.72595819     0.68270476
O      -0.00089299     0.90842001     0.79538801     0.42604944    -1.98913958     0.11216725
O       5.44079024     4.61284222     3.95914083     0.65862071     2.87363257     1.73102541
O       5.52916623     0.86339623     4.02031282     1.21889927     0.26523767     0.23179301
O       2.10218922     4.88630721     4.05717583    -1.09148306    -0.49158457     0.21189112
O       1.95383724     1.04290120     4.05491784    -0.96574039    -0.20815350    -0.07677214
O       3.79318523     2.97101624     3.23114782    -1.28776783    -0.35363686    -0.71714007
O       3.76517323    -0.85622377     3.24573380     0.38415458    -0.21904984    -0.41496129
O      -0.05587678     3.09994324     3.07593781     1.43909840    -0.16531248     1.37580321
O      -0.04203276    -1.17256878     3.16670483     0.92401728     0.52790038     1.17099549
O       5.73581402     6.33344802     1.70035901     0.07815977     0.56095655    -0.39220573
O       5.69790800     2.89952001     1.59414303    -0.60512067     0.19250114    -0.35079656
O       1.94763697     6.42173701     1.73174901    -1.62234304     1.06697170    -0.50599715
O       1.89844699     2.64827898     1.61759801     0.50645275     0.80700428    -0.00185711
