# total energy = -19895.91790971 eV

CRYSTAL
PRIMVEC
        8.54516725     0.00000000     0.00000000
        0.00003007     4.89711503     0.00000000
        0.00000000     0.00000000    12.92812383
PRIMCOORD
24 1
Ti      3.09723006     2.90202598     4.79624191     0.45322318    -0.55471314     2.58363619
Ti      5.44796746     1.99508945     8.13188246    -0.45322318     0.55471314    -2.58363619
Ti      7.36966724     1.99509118     1.66776866     0.45078654     0.55401097    -2.58554061
Ti      1.17553028     2.90202439    11.26035584    -0.45078654    -0.55401097     2.58554061
Ti      3.09721516     0.45346854     1.66782048     0.45447042    -0.54993860    -2.58454842
Ti      5.44798236     4.44364703    11.26030403    -0.45447042     0.54993860     2.58454842
Ti      1.17551538     0.45346660     8.13183064    -0.44860522    -0.54915030    -2.58617207
Ti      7.36968214     4.44364889     4.79629372     0.44860522     0.54915030     2.58617207
O       2.70461006     1.72435753     6.59712285     0.72153075     1.44037623    -2.24462377
O       5.84058746     3.17275783     6.33100152    -0.72153075    -1.44037623     2.24462377
O       1.56804484     1.72437726     0.13310226    -0.72141762     1.44108534    -2.24610036
O       6.97715274     3.17273817    12.79502170     0.72141762    -1.44108534     2.24610036
O       5.84057256     0.72420032     0.13306033    -0.72118185    -1.44028599    -2.24487625
O       2.70462496     4.17291511    12.79506364     0.72118185     1.44028599     2.24487625
O       6.97713784     0.72418059     6.59716478     0.72145259    -1.44080818    -2.24588130
O       1.56805954     4.17293484     6.33095952    -0.72145259     1.44080818     2.24588130
O       0.31048397     2.97870300     3.49220889    -2.31695639     0.74709935     0.14389184
O       8.23471356     1.91841243     9.43591547     2.31695639    -0.74709935    -0.14389184
O       4.58307814     1.91836664     2.97189435    -2.31608453    -0.74690883    -0.14362728
O       3.96211939     2.97874879     9.95622975     2.31608453     0.74690883     0.14362728
O       0.31046907     0.53014542     2.97185309    -2.31703455     0.74685329    -0.14320793
O       8.23472846     4.36697001     9.95627101     2.31703455    -0.74685329     0.14320793
O       3.96210448     0.53019121     9.43595667     2.31596445     0.74691500    -0.14444591
O       4.58309304     4.36692422     3.49216763    -2.31596445    -0.74691500     0.14444591
