# total energy = -39035.99041562 eV

CRYSTAL
PRIMVEC
        7.60600008     0.00000000     0.00000000
        0.00000000     7.60600008     0.00000000
       -3.79573973    -3.79573973     9.71340985
PRIMCOORD
46 1
Ti      1.86268847     4.83005948     6.16714460     0.00374944     0.47150681     0.04332413
Ti      3.81139602     6.88682402     1.20586599    -0.96553701     0.05636014     0.48940041
Ti      2.05958643     0.88905646     6.04451962    -1.23952184    -0.29897287    -0.30852581
Ti      3.77555299     2.84536898     1.27007498    -1.63608148    -0.56544133     0.51060996
Ti     -1.91173553     4.58812043     6.09098065     0.73334060     0.50393255    -0.62531438
Ti     -0.02822901     6.66014999     1.21897900     0.38667786    -0.67683313    -0.70640443
Ti     -1.86174653     0.79198646     6.02307562     1.53869808    -0.14357174    -0.32541256
Ti     -0.19849301     2.83986099     1.06235799     1.53669442     0.74986097    -0.42120110
Ti      3.83487943     1.14406947     8.38977562     2.43842563    -0.73222680     1.91397515
Ti      5.73373901     2.84332800     3.71614999    -0.68382319    -2.27190267    -0.56381716
Ti      3.97661945    -2.83108553     8.39073962    -0.20662807     0.64854173     1.85337037
Ti      5.55122901    -1.11123799     3.51910899    -0.35075722     1.03814628     1.80576201
Ti      0.15261043     1.06511844     8.40437864    -1.64368886    -0.46259948    -1.69250487
Ti      1.74301599     2.75755302     3.60799701     1.36927492     0.34997149    -0.41661580
Ti      0.12806545    -2.70833255     8.52497961    -0.52895839     0.30603955     1.11487985
Ti      1.70471302    -1.04516100     3.64711099     0.88301897     0.82958011     0.51712797
O       2.00636247    -0.92623556     5.74864562     0.49412559    -1.04195768    -0.87261448
O       3.91639902     1.05532798     0.84819398     0.33404247     0.12162479    -0.91803895
O      -1.69015255     2.67899147     5.76139762    -0.41713516     1.88348829    -0.71548531
O      -0.08802102     4.85037501     0.79258301     0.29214119    -0.24018612    -0.38956932
O      -2.03700057    -1.03411554     5.51023264     0.01763932    -0.65443907     1.17401910
O      -0.15607898     0.99043502     0.72421902    -0.57191640    -0.16767121     0.91625306
O       4.05955147     2.93719245     8.91041661    -1.13447681    -0.31177826     0.41444527
O       5.52752901     4.60730602     4.06495998    -0.34076745     1.33985763     1.07147704
O       3.88207944    -0.89402856     8.84356062    -0.42139548    -0.34491207     0.62940089
O       5.87636001     0.91834902     4.02688298    -0.42516215    -0.43126852     0.31487335
O       0.06989844     2.79657646     9.02558960     0.18626775     0.45579325    -0.24949352
O       1.84146899     4.69195300     4.28924202     0.32815696    -0.36871021    -1.41726844
O      -0.02969155    -0.65597754     8.94873063     0.36376521    -1.88940080     0.74164809
O       1.64582899     0.94084598     4.07203301     0.23173953    -0.30311981     0.42086326
O       2.01307546     0.88249445     8.00088061    -0.27739411     0.87337733     0.33897308
O       3.81540602     2.61090398     3.16495002    -0.07681636     0.67176754     0.87305106
O       1.93858143    -2.95258357     8.13917564    -0.19127883     0.30868213    -0.09670977
O       3.77052502    -0.74449699     3.14719401    -0.85589588    -0.49697309     1.38553921
O      -1.90605057     1.03841743     8.30415665     0.83779582    -0.30270149    -1.76187121
O      -0.00346802     3.05466398     3.35659903    -2.06686895    -0.31873284    -0.93508460
O      -1.74121758    -2.90418857     8.40726662    -0.94815249     0.45250044    -1.88648337
O      -0.15863300    -1.07756702     3.18536002     1.50329835     0.01124704    -0.15702196
O       3.80515845     4.46491744     6.55192964     0.82318629     0.11882743    -0.67983618
O       5.51194500     6.29305799     1.62312702     1.29229066     0.32082777    -1.00121340
O       3.91735646     1.06307047     6.45657661    -0.47058147     0.12607512    -0.52477289
O       5.54410803     3.15452502     1.53342602     2.27692198    -0.09229621     0.42119185
O      -0.02381557     4.81355745     6.42719262     0.12110235    -0.30043197     0.81052000
O       1.90767197     6.73286402     1.70358101    -1.28336405    -0.63519513    -0.23229874
O       0.13191447     0.76899847     6.49750165    -1.21132711     0.76470910     0.10298686
O       1.79482201     2.75033600     1.69852599    -0.04482437     0.64860549    -0.96613402
