# total energy = -19960.04458249 eV

CRYSTAL
PRIMVEC
        5.59757650     0.00000000     0.00000000
        0.00002786     5.39013167     0.00000000
        0.00000000     0.00000000     9.56527576
PRIMCOORD
24 1
Ti      2.02886879     3.19418699     3.54864917    -0.02508061     0.03165929    -0.19950945
Ti      3.56873556     2.19594457     6.01662692     0.02508061    -0.03165929     0.19950945
Ti      4.82755949     2.19594643     1.23395067    -0.02389456    -0.03158267     0.19955650
Ti      0.77004492     3.19418540     8.33132559     0.02389456     0.03158267    -0.19955650
Ti      2.02885492     0.49912126     1.23398904    -0.02482581     0.00366254     0.19940609
Ti      3.56874949     4.89101046     8.33128721     0.02482581    -0.00366254    -0.19940609
Ti      0.77003099     0.49911930     6.01658860     0.02309366     0.00261944     0.19985938
Ti      4.82757336     4.89101248     3.54868754    -0.02309366    -0.00261944    -0.19985938
O       1.77167813     1.89795693     4.88108713     0.58021387     0.28066918     0.10982600
O       3.82592628     3.49217464     4.68418896    -0.58021387    -0.28066918    -0.10982600
O       1.02716254     1.89797872     0.09847988    -0.57925433     0.27984874     0.10966402
O       4.57044192     3.49215289     9.46679599     0.57925433    -0.27984874    -0.10966402
O       3.82591235     0.79710875     0.09844887    -0.58002592    -0.28106642     0.10990750
O       1.77169206     4.59302282     9.46682700     0.58002592     0.28106642    -0.10990750
O       4.57042800     0.79708700     4.88111820     0.57919057    -0.28009660     0.11031476
O       1.02717631     4.59304461     4.68415795    -0.57919057     0.28009660    -0.11031476
O       0.20338994     3.27858365     2.58381968     0.13596924    -0.13618213     0.19656168
O       5.39421447     2.11154797     6.98145641    -0.13596924     0.13618213    -0.19656168
O       3.00218315     2.11149780     2.19884878     0.13500611     0.13648063    -0.19593536
O       2.59542121     3.27863382     7.36642720    -0.13500611    -0.13648063     0.19593536
O       0.20337601     0.58351776     2.19881820     0.13596127    -0.13648398    -0.19589756
O       5.39422834     4.80661386     7.36645772    -0.13596127     0.13648398     0.19589756
O       2.59540733     0.58356793     6.98148693    -0.13476417    -0.13616413    -0.19652054
O       3.00219708     4.80656363     2.58378916     0.13476417     0.13616413     0.19652054
