# total energy = -19075.98797528 eV

CRYSTAL
PRIMVEC
        7.60600008     0.00000000     0.00000000
        0.00000000     7.60600008     0.00000000
       -1.89786986    -1.89786986     4.85670466
PRIMCOORD
22 1
Ti      3.77621902     6.56991601     1.28872002     0.40899479     0.34236000    -0.45290565
Ti      3.78115100     2.82504000     1.20092898    -0.41862794    -0.34997381    -0.09704812
Ti     -0.03204999     6.63945101     1.14223200     0.28869257    -0.18300039     0.96412830
Ti     -0.07835797     2.87898999     1.13254700     0.25760921     0.12530122    -0.52800400
Ti      5.66796720     2.99501724     3.56551080    -0.19261915    -1.06280574     0.05398316
Ti      6.13166120    -0.88273676     3.73256380    -1.89787464     0.56356777    -0.54581044
Ti      1.83354123     2.80085824     3.63219983     0.40502243    -0.83043603    -0.40996512
Ti      1.88834721    -1.09392177     3.74086881    -0.79895878     1.08582946    -0.64149459
O       3.65127498     4.62129699     0.71410200    -0.12465973     1.33895775     0.61602420
O       3.82019402     0.90069498     0.78604200     0.03989942    -0.39987637     1.64140058
O       0.04870299     4.76757603     0.68433800     0.10696616     0.41082850     0.23569980
O      -0.25010197     0.91351498     0.71592200     0.81141449     1.41677350     0.84881043
O       5.65728523     4.82518824     4.12674984     0.48436053     0.36123653    -2.07671782
O       5.45534124     1.01655024     3.93307483     1.44332940    -1.25290881     0.33222213
O       1.95319720     4.65754520     4.25421482    -0.08721057     0.31486204    -1.63466814
O       2.04594922     0.86920824     4.03151381    -0.33680127    -0.11156561    -0.43088671
O       3.75635524     2.94174020     3.18363580    -0.10569758     0.05483779    -0.44095361
O      -0.01593675     2.93405925     3.16652681    -0.10579425    -0.27599569     0.05039467
O       5.70567902     6.63165401     1.79796300     0.18710259    -0.45243385     0.95252697
O       5.71040298     3.23177299     1.55819898    -0.75152088    -1.10948979     0.72661562
O       1.89882900     6.57118498     1.78779698    -0.10408652     0.21618101     0.21956509
O       1.81485899     2.78005798     1.47370699     0.49045945    -0.20224973     0.61708324
