# total energy = -19958.22525848 eV

CRYSTAL
PRIMVEC
        7.60600008     0.00000000     0.00000000
        0.00000000     7.60600008     0.00000000
       -1.89786986    -1.89786986     4.85670466
PRIMCOORD
24 1
Ti      3.96064501     6.64938700     1.18897100    -3.07902676    -1.58532197     1.42337224
Ti      3.83061902     2.72936502     1.21393801     0.52083242     1.09623601    -1.27412119
Ti     -0.06128502     6.63921198     1.33815300     1.15175848     1.02808838    -1.85873447
Ti     -0.06843400     2.77125099     1.27123700    -0.67245763    -0.30670110    -0.20808897
Ti      5.69204921     2.87023724     3.74743183    -0.78240832     1.79648804    -1.29663686
Ti      5.65963022    -0.84632879     3.68239483    -2.65352934    -1.96555562    -0.38867304
Ti      1.96385520     2.89436725     3.50780984     1.25048271    -0.15718394     1.53947893
Ti      1.79725724    -1.00102180     3.57935783     2.55309687     1.29487899    -0.31705493
O       3.87103102     4.77189501     0.92123197    -0.21088504     0.62609676    -2.05738774
O       4.02556898     0.86954501     0.64344498    -0.73916826    -0.07757767     0.52463020
O       7.17712298     4.97877199     0.74986200     1.36227792    -2.78327805     1.20100490
O       0.04361802     0.98505102     0.69741302    -0.56204670     0.26019856     2.43536653
O       5.47382524     4.79354323     4.02215584     1.24841709    -0.27117435     0.56548401
O       5.47430325     0.97096924     4.07785481     0.60785966     1.09082049     0.99782262
O       2.18860424     4.84932825     3.56264080    -1.95557948    -3.19019333     1.71761171
O       2.24364121     0.90312824     4.23072380    -1.08789303     1.38142622    -2.01500798
O       3.84520722     2.88144220     3.12828582    -0.84224357    -0.64392840     1.32064094
O       3.70658125    -1.09616077     3.13295581     2.10499611     1.60614971    -0.44060086
O       0.07482725     2.68629020     3.26648083    -0.81356085     0.33933278    -0.31246705
O      -0.11295976    -1.01555777     3.32478081     1.50933993     0.31469672    -0.75484994
O       5.64032801     6.72506099     1.77728302     2.59332822     0.83997303    -0.91356806
O       5.66325498     2.88197699     1.76266402     2.73628598    -0.40031937    -0.55117993
O       1.97784500     6.87636001     1.53665998    -2.78062262    -0.49781744     0.29427135
O       1.94211199     2.77031598     1.52764301    -1.45925431     0.20466529     0.36868733
