# total energy = -19959.04922922 eV

CRYSTAL
PRIMVEC
        7.60600008     0.00000000     0.00000000
        0.00000000     7.60600008     0.00000000
       -1.89786986    -1.89786986     4.85670466
PRIMCOORD
24 1
Ti      3.63758601     6.74319600     1.34129801     4.92856182    -0.82814312    -2.09568640
Ti      3.81900199     2.97233400     1.25592299     0.27679607     1.02238027    -0.08615976
Ti      0.15619201     6.52018901     1.19978998    -2.59950479    -0.21226598    -1.31546891
Ti      0.02445402     2.73030801     1.10346400     0.06724080     0.08955078     2.03633888
Ti      5.80039021     2.64363423     3.53502479    -0.47311324     1.91188870     0.22705163
Ti      5.60805920    -1.10584578     3.55959481     0.55702071    -1.43029391    -0.32622143
Ti      1.92923521     3.03707423     3.57832683     0.49655014    -1.82415749     0.43308963
Ti      1.76899520    -0.84327575     3.68702481     0.30006662     1.48008154     1.53038545
O       3.57434700     4.87452301     1.07068301     0.60727859    -0.16733414    -1.71938191
O       3.73397099     1.14369502     0.99285199    -0.22870100    -2.13673356    -2.17845641
O       0.15463099     4.62421402     0.86662998     0.27216140     0.37682308    -0.74598529
O       0.09412402     0.76395298     0.80891802     0.21657798     1.17083711    -0.75905678
O       5.58915323     4.58496024     3.98692380     1.23026252     1.01602553     0.87009480
O       5.55578623     0.84246024     4.13178580     0.32606640     0.09447419    -1.40502072
O       1.80549224     4.78014621     4.03725279    -0.03688583     2.57123858     0.97620581
O       2.00857523     1.06741523     3.89972581    -0.31974842    -0.93903021     1.65825185
O       3.95310720     3.01087620     3.18659782    -1.11390643    -0.73021774     0.46245627
O       3.80218125    -0.89923275     3.18725580    -0.47318909    -0.01007307     1.92397958
O       0.09883523     2.85492021     3.14920282    -1.88747633    -0.50125680     0.63746387
O      -0.07883979    -0.70877080     3.01717881     1.83317049    -0.47087072     2.79663777
O       5.74266401     6.40525399     1.69395998    -0.49263666     0.39074406    -0.74114956
O       5.71385301     2.75513002     1.58050200     1.72163600    -0.12065472     0.04823931
O       1.99861902     6.80364698     1.80314502    -4.43443649    -0.24652595    -0.67868973
O       1.97343802     2.95526401     1.75382300    -0.77379050    -0.50648694    -1.54891822
