# total energy = -18969.85682914 eV

CRYSTAL
PRIMVEC
        7.60600008     0.00000000     0.00000000
        0.00000000     7.60600008     0.00000000
       -1.89786986    -1.89786986     4.85670466
PRIMCOORD
22 1
Ti      5.96648302     5.16971401     0.64612600    -3.78447140     8.79306937    -3.17111163
Ti      5.32634624     2.93356224     2.58239482   -14.36122779     2.67088995     0.89765164
Ti     -0.91212579     4.08167023     4.55131584    -0.68952436    14.29064816     0.39529029
Ti      0.50754099     4.01934802     1.52367000    17.41136511     2.14881363    15.68621545
Ti     -1.55562178     2.26688321     4.62525581     0.28433403    60.99724092    86.60282026
Ti      5.31291022     1.47027120     3.87481479   -76.70301218   -61.95103184   -46.36329406
Ti     -0.60657080     2.00135524     3.67090084    76.63130846    -5.32224722   -52.19396452
Ti     -0.91724177    -0.00175877     4.29650482     9.10130902   -16.08495461     2.14502537
O       3.70584299     4.93447102     1.25944699     0.50871326    -0.33023441    -0.64454881
O       5.28242199     6.15743801     1.74533002    -1.05449567     0.90201711     1.32459042
O       0.55463703     5.93596902     1.35939201    -2.78238434    -0.09296830     3.95270748
O      -0.60602479    -1.71873675     4.40162382     0.08972408    -0.05519235    -1.03962826
O       6.61991601     3.68133600     1.86754399    10.94746127     7.75370799    16.51977691
O       6.44878522     0.63548425     2.51850281    -1.00699992     0.98174731    -1.03519054
O       0.67420325     4.05722621     4.76576380     6.70383902     0.57378508     0.20669389
O       2.06996497     3.90201202     0.75394698     5.91361711    -0.86944920    -1.66906566
O       3.92560025     2.19306425     2.56822282    -6.06372640    -3.05114751    -1.35356805
O       0.99481322     2.65239021     2.65718582     0.00740169     1.27845555    -1.40237429
O       4.70809423     4.20289723     3.80743682     0.21052406    -0.01390813     1.61279088
O       5.91072001     3.44067301     1.06139600   -18.55451914    -8.90585728   -23.90607027
O       0.74798723     0.62065120     4.08324681     2.47553926    -0.82255688     0.60099379
O       5.05121323    -0.13848876     4.65404983    -5.28477544    -2.89082708     2.83425919
