# total energy = -19958.88674371 eV

CRYSTAL
PRIMVEC
        7.60600008     0.00000000     0.00000000
        0.00000000     7.60600008     0.00000000
       -1.89786986    -1.89786986     4.85670466
PRIMCOORD
24 1
Ti      3.85259702     6.56484702     1.26102499     1.89111804    -0.57721313    -0.44640847
Ti      3.56229499     2.64820701     1.30443700    -1.01950089     2.42244005     1.45453119
Ti      0.27940802     6.61455301     1.09343101    -0.85496874     0.19462564     0.38492951
Ti     -0.12759998     2.93886100     1.08625802     1.94090310    -0.51142886     0.42464098
Ti      5.75787325     3.01462124     3.48162779     0.29786961    -0.76943247     0.04575151
Ti      5.78821622    -0.88012178     3.55237582    -1.43667693     1.24126273    -0.15270739
Ti      1.77626620     2.75613223     3.87594279     0.28619680     0.35258039    -1.29816744
Ti      1.76389822    -0.99527578     3.63820282     1.57837279    -0.01844099     0.81711900
O       3.32768801     4.55617199     0.95056400     1.70720053     1.98299336    -0.88030363
O       3.90270503     0.97801798     0.80416601    -0.06999625    -1.42010745    -0.23974363
O       0.38438102     4.74498799     0.78487601    -1.12076357     1.91176272    -0.54935907
O       0.14672498     1.06893598     0.76946002    -0.44198771     0.22660837    -0.17979603
O       5.97364025     4.95025023     4.06249782    -1.22659278    -2.39813283     0.55365205
O       5.95083223     1.16197021     3.88072083    -0.87754946    -1.60494361     0.72575301
O       1.85748121     4.79504625     4.21148080     0.37127386    -0.99592746    -0.31758612
O       1.58547023     0.91083724     4.01190282     0.20858751    -1.20137822     0.49565565
O       3.70989824     2.71348621     3.22834181     1.11742807     0.30555927     0.93453695
O       3.93289321    -1.04357876     3.23758881    -0.22261082     0.42342254     0.86670223
O      -0.02107776     3.14280623     3.30624781    -1.41845654    -0.36893596    -0.70204101
O       0.02599022     6.36560321     3.07189881     1.06065167     1.09023865    -0.34359644
O       5.69268401     6.56908298     1.56690098     1.72054122     0.11157898    -0.21881793
O       5.64811998     3.07802398     1.49884699     0.31272314    -0.17489833     0.73301895
O       2.11879401     6.73131502     1.71954798    -3.87657837     0.70470287     0.13351898
O       1.75585102     2.84857198     1.96309900     0.07281573    -0.92693626    -2.24128262
