# total energy = -4982.42640928 eV

CRYSTAL
PRIMVEC
        4.34563883     0.00000000     0.00000000
        0.00000000     3.27839062     0.00000000
        0.00000000    -0.00008667     5.74778038
PRIMCOORD
6 1
Ti      2.17281936     1.63915180     2.87389025     0.00000000     0.00000000     0.00000000
Ti      0.00000000     0.00000000     0.00000000     0.00000000     0.00000000     0.00000000
O       2.17281936     0.63889309     1.12015777     0.00000000     0.14124232     2.26459225
O       2.17281936     2.63941051     4.62762272     0.00000000    -0.14124232    -2.26459225
O       0.00000000     1.00022425     3.99404920     0.00000000    -0.14242374     2.26322340
O       0.00000000     2.27807935     1.75373129     0.00000000     0.14242374    -2.26322340
