# total energy = -19941.52814978 eV

CRYSTAL
PRIMVEC
        5.22557507     0.00000000     0.00000000
        2.38214499     5.02560344     0.00000000
        0.00000000     0.00000000     9.61106750
PRIMCOORD
24 1
Ti      3.30567649     2.97816792     3.56563747     3.12496416    -4.09301032     1.18282282
Ti      4.30204340     2.04743546     6.04543008    -3.12496416     4.09301032    -1.18282282
Ti      5.47720973     2.04743716     1.23985792    -6.65935480     0.91855651     1.63936195
Ti      2.13051026     2.97816641     8.37120979     6.65935480    -0.91855651    -1.63936195
Ti      2.11460412     0.46536628     1.23989644     3.12509863    -4.09309131    -1.18507768
Ti      5.49311580     4.56023725     8.37117127    -3.12509863     4.09309131     1.18507768
Ti      0.93943776     0.46536442     6.04539156     6.65935686    -0.91831971     1.63627534
Ti      6.66828222     4.56023909     3.56567604    -6.65935686     0.91831971    -1.63627534
O       2.49272120     1.76960038     4.90445418     0.11038547     1.16068690    -1.26654311
O       5.11499869     3.25600299     4.70661342    -0.11038547    -1.16068690     1.26654311
O       1.79769392     1.76962068     0.09895134     1.42651207    -0.64245001    -0.34105233
O       5.81002604     3.25598278     9.51211600    -1.42651207     0.64245001     0.34105233
O       3.92392630     0.74320125     0.09892012    -0.11042147    -1.16152020    -1.26658528
O       3.68379360     4.28240218     9.51214717     0.11042147     1.16152020     1.26658528
O       4.61895364     0.74318099     4.90448535    -1.42636243     0.64257780    -0.34088187
O       2.98876621     4.28242245     4.70658220     1.42636243    -0.64257780     0.34088187
O       1.63881281     3.05685693     2.59618911     0.39980026    -0.69343424    -0.54298479
O       5.96890703     1.96874646     7.01487849    -0.39980026     0.69343424     0.54298479
O       3.73582222     1.96869969     2.20937523     2.02227752    -0.84542608    -1.87658333
O       3.87189767     3.05690369     7.40169216    -2.02227752     0.84542608     1.87658333
O       0.44774040     0.54405514     2.20934453     0.40003578    -0.69317275     0.54218107
O       7.15997943     4.48154825     7.40172286    -0.40003578     0.69317275    -0.54218107
O       2.68082527     0.54410189     7.01490909    -2.02268452     0.84607632    -1.87843838
O       4.92689462     4.48150148     2.59615841     2.02268452    -0.84607632     1.87843838
