# total energy = -39032.58723189 eV

CRYSTAL
PRIMVEC
        5.93200024     0.00000000     0.00000000
        0.00000000     9.29399984     0.00000000
        0.00000000     0.00000000     9.29399984
PRIMCOORD
46 1
Ti      4.52759801     7.12331799     6.83452802    -3.11369990     1.00517907    -0.26792833
Ti      4.46749897     6.73819501     2.44197902     0.14967091     0.59099451    -0.88673833
Ti      4.40779201     2.15108001     7.23446998     0.92491948    -0.89292106    -0.92751475
Ti      4.21781098     2.70064599     1.97442297     0.28869437    -1.10768950     1.50929159
Ti      1.42539502     6.90493199     7.27216698     2.76326638    -1.00723981    -1.28785551
Ti      1.50289302     7.17202002     2.13070801    -1.03296807    -1.10371149     1.41203932
Ti      1.47593499     2.44336498     6.69628698    -1.38539523    -0.92055272     0.38921451
Ti      1.34956598     2.07828999     2.73848301     0.66578741    -0.37748411    -0.21558117
Ti      2.91297899     4.74643598     4.57727902     0.41472321    -0.17838860     1.51487732
Ti      2.97871001     4.59500201     9.01511501     0.42834826     1.61010253    -0.60600924
Ti      3.05438500     9.18843300     4.58714600    -0.05392171    -0.17525134     0.46854850
Ti      2.96208902     9.29270002     0.14796600     0.93200030     0.79793471    -1.98905062
Ti      5.90792702     4.65255898     4.61265298    -0.63561165    -0.45653270     1.24847108
Ti      0.11064800     4.81149202     9.12402599    -0.87880339     0.07682202     0.80973453
Ti      0.02690300     9.09470301     4.89200899     0.28896151     1.01140885    -0.23279779
Ti      0.05222699     9.27101698     0.10827199    -1.11996730     2.39733681    -2.25338892
O       4.44388402     5.71134201     5.48347701     0.76205006    -1.08913873    -0.23726637
O       4.43909898     5.27140399     0.93326298    -0.60665150     0.93931047     1.44920361
O       4.51838201     0.49311800     5.96226701    -0.34497584     0.75847931    -2.54954258
O       4.32889100     1.14380800     0.67273499     0.97093042     0.48666630     0.70599537
O       1.58027699     5.50640700     5.69794499    -0.99845152    -0.38597569    -1.10584602
O       1.49956498     5.63239601     0.79162900     0.58492644    -0.14470740     0.32505827
O       1.61997100     1.07660000     5.08743499    -1.69427559     0.36196467     0.84410942
O       1.47908402     0.98538800     1.06745201    -0.73039900    -0.63193805    -0.51303863
O       4.38264202     8.39342398     8.39327100    -0.21392666     0.71945381     0.64992396
O       4.65666100     8.25899100     3.79712099    -0.28444768     0.71598410    -0.18286335
O       4.59520802     3.76313802     8.43089301    -1.21728693    -2.01157272    -0.33988505
O       4.37249700     3.76167802     3.65254601     0.15940177     0.63823109     0.32353154
O       1.40827502     8.32305399     8.44281098     0.77666473     0.57946876     0.87845989
O       1.49450302     8.34293698     3.78557201    -0.25947197    -0.21234697    -1.19460105
O       1.37976798     4.16519202     7.85090300     0.59904489    -1.32902043     2.28229970
O       1.52751098     3.58680600     3.97212499    -0.62528147     0.48590680    -0.53545840
O       3.09634801     6.14914199     7.96638598    -0.05500543    -0.17692179    -0.28138960
O       2.92415199     6.13599902     3.26847699    -0.45854433    -0.23498735    -0.74667512
O       2.82017898     1.33738998     7.84119201    -0.37465306     0.85808440     0.22198013
O       3.15173297     1.41082899     3.09064602     0.91918181     0.62068407    -0.48042777
O       5.70902998     6.25834999     7.97816102     1.13886723    -1.23612618     0.81789419
O       0.05520001     6.02455303     3.11624598     0.53029279    -0.49967429     0.49020337
O       0.14838199     1.22684099     7.67059400    -0.14840387     1.28040342     1.03654165
O       2.94598902     7.79392098     5.95573501    -0.59975477     0.37590956     0.60477640
O       2.94894701     8.09068998     1.61046100     1.33571198    -0.66882877    -0.53187685
O       3.03881502     3.10653298     6.13901100     1.27944054     0.75654816    -0.66958287
O       0.24410603     7.78143398     6.09977102    -0.19020565    -0.14718157     0.01986512
O       5.84618902     7.97311701     1.30651302    -0.11128021    -2.08022815     2.12477047
O       5.70036100     3.20361103     6.08754798     0.95357649     0.02165410    -0.99920356
O       0.08045600     3.09492802     1.81695200     0.26692174    -0.02010732    -1.09226776
