# total energy = -4988.69510689 eV

CRYSTAL
PRIMVEC
        3.67263821     0.00000000     0.00000000
        1.07753897     3.51100857     0.00000000
       -2.37512174    -1.75552879     4.74194214
PRIMCOORD
6 1
Ti      0.80804184     2.63339103     1.18548526     0.00036921    -0.00036921     0.00000000
Ti      1.56701338    -0.87791141     3.55645617    -0.00036921     0.00036921     0.00000000
O       0.26942316     0.87774728     0.77242349     0.00012727     0.00050008    -0.50656587
O       2.10563190     0.87773227     3.96951794    -0.00012727    -0.00050008     0.50656587
O      -0.26939487    -0.87772637     3.14339441     0.00050008     0.00012727    -0.50656587
O       2.64444991     2.63320581     1.59854707    -0.00050008    -0.00012727     0.50656587
