# total energy = -19517.83339933 eV

CRYSTAL
PRIMVEC
        5.93400000     0.00000000     0.00000000
        0.00000000     9.29699974     0.00000000
        0.00000000     0.00000000     4.64899994
PRIMCOORD
23 1
Ti      4.55404200     7.07575300     2.17102100    -0.63202136     0.65474272     0.21745756
Ti      4.48750002     2.31687199     2.31561398    -0.69157533    -0.63598034     0.20432024
Ti      1.38060302     7.00841302     2.23265200     0.47732548     0.37483278     0.69542478
Ti      1.43716900     2.38819402     2.41961202     0.55998750    -0.81651942     0.02318699
Ti      2.98594502     4.55055599     0.18844901    -1.09090559    -1.40642532     0.11446838
Ti      3.01206299     0.05513900     4.63121202    -0.54880449     0.37586200     0.50833274
Ti      5.89084502     4.64667702     0.06956400     0.51799623     0.14239572    -1.11366346
Ti      0.06350201     9.25855100     4.49910700     0.64396028     0.58190154     0.67500739
O       4.35067802     5.46161802     1.10086701     0.22237068     0.60739712    -0.36427275
O       4.51048499     0.85014400     0.94340000     0.02633093     0.08392881    -0.15719525
O       1.40727302     5.57756298     1.00620699     1.08972751    -0.67158217    -0.47074551
O       1.42898099     0.84787801     0.90482002     0.30629538    -0.00140639    -0.12161965
O       4.45908601     8.39808497     3.64281100     0.06775116    -0.30937659    -0.27915609
O       4.37781502     3.62068398     3.71254000    -0.12905503     1.49473169     1.30585067
O       1.67601299     8.36071702     3.64927601    -1.32192315    -0.54271328    -0.10491699
O       1.49480799     3.79516399     3.82384502    -0.14290454     0.15378596    -0.51471396
O       2.87967401     1.41981902     3.24474598     0.77094120     0.09869312    -0.10598040
O       5.85053499     6.04833298     3.33716700     0.11153604     0.63594949    -0.70552588
O       0.07147798     1.42425601     3.30922200    -1.10488597     0.25907731    -0.66573650
O       2.92547001     7.87355200     1.32089198     0.76453118    -1.26914996     1.12947010
O       2.83419900     3.32766398     1.54312701     1.21207582    -0.26894340    -0.78797939
O       0.07307901     7.72804497     1.19947798    -0.84004682     0.76915197     0.16309130
O       5.92613601     3.24220101     1.40318402    -0.26870763    -0.31035284     0.35489644
