# total energy = -19958.26082568 eV

CRYSTAL
PRIMVEC
        7.60600008     0.00000000     0.00000000
        0.00000000     7.60600008     0.00000000
       -1.89786986    -1.89786986     4.85670466
PRIMCOORD
24 1
Ti      3.84127501     6.52978702     1.21307799     0.48580138     1.17636755     1.43753953
Ti      3.61343102     2.74930098     1.09103199     1.77021521     0.04568029     3.08751320
Ti      0.10543502     6.74803702     1.30709898    -1.55669118     0.25305167    -1.80783535
Ti     -0.00076498     2.97392799     1.26385202    -2.84076717    -0.38766465    -2.09476620
Ti      5.80930420     2.93508723     3.67127983    -1.23273772    -0.61649215    -0.45135167
Ti      5.71206121    -0.93102980     3.60244181    -1.31919675     1.45713341     1.65049406
Ti      1.94659920     2.69601024     3.63115582     1.03816248     0.76135355    -0.28418131
Ti      1.81696221    -1.14406280     3.66619079     1.60282451     0.70695284     0.27336365
O       3.78045799     4.72586702     0.70173798     0.06532353    -0.57181690    -0.33070775
O       3.73451599     0.89077301     0.84918502    -0.10154859    -0.61495231    -0.27315642
O      -0.05311400     4.80382202     0.72697598     0.20000182     1.02203703     1.23084385
O      -0.13246598     1.02028999     0.69115899     0.74473316     0.40713537     2.25515373
O       5.59993723     4.90620925     4.06405281     0.35980288    -1.66531185     1.06514390
O       5.74234020     1.08729520     3.79255980     0.66827161    -1.40735349     1.84630704
O       1.77879123     4.70246722     4.01110180     0.91014360    -1.11624202     0.56595658
O       2.02053924     0.77350225     4.10332983    -0.43774950     2.68767720    -1.22477810
O       4.01410520     2.69704425     3.02498481    -5.62578381     0.47960656     1.03933053
O       3.74582223    -0.90698679     3.08700682     0.30098810    -0.51998550     0.87484517
O      -0.02927678     3.13870823     3.10460482     2.30909035    -1.03065177     2.12869809
O       0.02177321    -0.90088675     3.36596081     0.26643144     0.16836130    -0.92098543
O       5.75736101     6.51747502     1.82087701    -0.11559581     0.07565320    -3.81146747
O       5.71469202     2.92338902     1.81075702     1.23675507     0.54627221    -4.10252186
O       1.91501198     6.67254898     1.72706298    -1.15076630    -0.31421849    -1.48619639
O       1.80909101     3.22745999     1.72954102     2.42229195    -1.54259331    -0.66724163
