# total energy = -4984.90766628 eV

CRYSTAL
PRIMVEC
        2.87636392     0.00000000     0.00000000
        1.53051860     4.23899030     0.00000000
       -0.00000994    -0.00005972     4.57961661
PRIMCOORD
6 1
Ti      2.20343628     2.11946524     2.28980830     0.00000000     0.00000000     0.00000000
Ti      0.00000000     0.00000000     0.00000000     0.00000000     0.00000000     0.00000000
O       1.73645553     0.82610513     0.89249984    -4.92745033     2.25086076     2.66784396
O       2.67041704     3.41282535     3.68711682     4.92745033    -2.25086076    -2.66784396
O       0.46697657     1.29333597     3.18230905     4.92730635    -2.25289167     2.66990059
O       1.06353217     2.94559449     1.39730760    -4.92730635     2.25289167    -2.66990059
