# total energy = -19519.25596758 eV

CRYSTAL
PRIMVEC
        7.60600008     0.00000000     0.00000000
        0.00000000     7.60600008     0.00000000
       -1.89786986    -1.89786986     4.85670466
PRIMCOORD
23 1
Ti      3.80995401     6.62515402     1.21990200     0.45929304     0.03521616    -0.82014827
Ti      3.85910802     2.81290602     1.22900998    -0.02520145    -0.04229106     1.02337837
Ti      0.03696203     6.76460799     1.22248999    -0.51976901    -0.22623377     0.49787811
Ti     -0.01303602     2.87744802     1.08072002     0.02815179     0.09662801    -0.21471008
Ti      5.57071924     2.92300923     3.74633283    -0.53733453    -0.73443075    -0.95296688
Ti      5.70070121    -1.01031976     3.59498179    -0.28990999     0.95581361    -0.27058763
Ti      2.01174521     2.76187021     3.67872779    -0.27318521     0.58425487    -0.02156025
Ti      1.90117923    -0.98285377     3.61537982     0.09603202    -0.34739345     0.45007743
O       4.01917398     4.68793099     0.88629400    -0.93331054     0.01950414    -0.57062185
O       3.88715700     0.97178899     0.75712702    -0.02207061    -0.66113911    -0.06310518
O      -0.07746202     4.88744102     0.78024100     0.69575363    -0.94465682     0.63152076
O      -0.11248001     0.97249200     0.77171098     0.34738830    -0.35698906    -0.41562412
O       5.50282125     4.76982122     4.00586083     0.91299830     0.72103761     0.06488027
O       5.59801224     0.98524321     4.06509180     0.53823982    -0.13088643    -0.43887076
O       1.83028822     4.65074025     4.00134282    -0.38548770     0.60872458     0.36915064
O       1.89719321     0.92133220     4.02045580    -0.33465723     0.11540735     0.49261558
O       3.76286322     2.72258721     3.26569780     0.87233397     0.36742183    -0.93405256
O       3.76270521    -1.04512877     3.11544581     0.36926634     0.23790529     1.12871496
O       0.03084024    -0.84713377     3.23151782    -0.88191442    -0.48822413    -0.25143393
O       5.67502500     6.67159800     1.63076902     0.85770311     0.24509667     0.28643951
O       5.87018498     2.82835498     1.75802800    -0.73914255     0.15096855     0.18485364
O       1.93229999     6.80632499     1.61522899    -0.95738584    -0.39004909    -0.51656078
O       1.74554598     2.80434700     1.66700401     0.72220978     0.18431500     0.34073274
