# total energy = -19516.42960327 eV

CRYSTAL
PRIMVEC
        5.17600016     0.00000000     0.00000000
        0.00000000     5.50899976     0.00000000
        0.00000000     0.00000000     9.26300011
PRIMCOORD
23 1
Ti      1.99009800     3.20116300     3.38658798    -0.74243485    -0.67914584     2.98210745
Ti      3.32702701     2.32406398     5.91544498    -0.79473805     0.03253038    -2.13791601
Ti      4.36101899     2.12870598     1.57972898     0.70060762    -0.76501300    -1.58797407
Ti      0.75246999     3.40459498     7.75533798    -0.75274652     0.78833909     1.45318959
Ti      2.03790302     0.20801000     1.44989301    -1.65992590    -0.32189349    -1.67323625
Ti      3.12211201     5.21792100     7.84806301     0.49846870    -0.08432476     0.76788853
Ti      0.65917599     0.55268198     5.87810698     1.23062762     0.42210253    -3.44627247
Ti      4.55130202     4.84465201     3.43721500     1.78121208    -0.00395616     2.41319487
O       1.91723500     1.91140802     4.66415500    -1.15697680    -0.97598547     1.17285079
O       3.71890399     3.50223099     4.48865199    -0.06897475     0.29649818    -0.44901479
O       4.80285601     2.92910101     9.22464698     0.16662066    -0.14626060    -0.63457986
O       3.38362099     0.65208899     0.29284801     0.99287736     0.71371896    -1.20218992
O       1.77285200     4.52664199     8.93268502    -0.27447822     0.22169140     1.78635557
O       4.38831702     0.64552602     4.77504600    -1.60790655     1.02869053    -0.46957746
O       1.08775998     4.64609900     4.45287299     0.04212266     0.19366456     0.00919247
O       0.34733602     3.26234398     2.49771699    -0.18514392     0.58308862    -0.46593292
O       5.09781898     2.40170900     6.45432697     0.36622936    -1.22791202     0.35827719
O       2.79004599     1.53814300     2.45758101    -0.27862387     2.06487968    -0.07946126
O       2.37409600     3.74170200     6.74268000     1.08098550     0.06127610     0.46552257
O       0.19262697     0.64273398     2.18845998     0.76322326    -0.13848070    -1.28132439
O       5.03860802     4.99685900     7.07317299    -1.65978115    -1.19456454     2.22710478
O       2.20272502     1.05892998     6.98599898     0.69431047     0.11587761     0.94772158
O       2.94799598     4.50055303     2.38371401     0.86444557    -0.98482106    -1.15592650
