# total energy = -4989.45196575 eV

CRYSTAL
PRIMVEC
        2.97497133     0.00000000     0.00000000
        0.00000000     4.21739778     0.00000000
        0.00000000    -0.00005769     4.45049199
PRIMCOORD
6 1
Ti      1.48748567     2.10866989     2.22524600     0.00000000     0.00000000     0.00000000
Ti      0.00000000     0.00000000     0.00000000     0.00000000     0.00000000     0.00000000
O       1.48748567     0.82189741     0.86733533     0.00000000     0.27764093     0.16096937
O       1.48748567     3.39544233     3.58315661     0.00000000    -0.27764093    -0.16096937
O       0.00000000     1.28674912     3.09258223     0.00000000    -0.27874780     0.16204538
O       0.00000000     2.93059067     1.35790971     0.00000000     0.27874780    -0.16204538
