# total energy = -19961.07028083 eV

CRYSTAL
PRIMVEC
        5.93400000     0.00000000     0.00000000
        0.00000000     9.29699974     0.00000000
        0.00000000     0.00000000     4.64899994
PRIMCOORD
24 1
Ti      4.46953800     6.99929699     2.34549201     0.74241865     0.04725844    -0.23111578
Ti      4.45816201     2.41052001     2.38080200    -0.65971163    -0.56739408    -0.66163199
Ti      1.50988398     6.88578900     2.21697200    -0.80897271     0.49486812     0.41599256
Ti      1.49063802     2.34415298     2.39959398     0.56542102    -0.78303413    -0.96151786
Ti      2.96683299     4.64886903     4.64011199    -0.33840590     0.55457225     0.29580990
Ti      2.97822099     9.24664303     0.01837499    -0.99602388     0.45628742     0.34657301
Ti      5.89893698     4.62163201     4.62745698     0.56375417     0.80295890     0.37155900
Ti      5.92651601     0.06061699     4.57462599     0.87053832    -0.33777212     1.06346214
O       4.47665797     5.58616000     0.83356699    -0.33275821    -0.02731078     0.31985127
O       4.43779700     0.75245798     0.88087200     0.15449276     1.73114471     1.54014613
O       1.49006698     5.56616001     0.82264202    -0.00740298    -0.13686347     0.26884236
O       1.45770700     0.89201001     1.01730500    -0.02948388     0.16219168    -0.39728161
O       4.40994597     8.40834699     3.77799398     0.39693297    -1.16703778    -1.37914539
O       4.45914401     3.76844699     3.81650898    -0.24074739    -0.90736501    -1.09623009
O       1.46692500     8.40243502     3.82841701    -0.03127234    -0.25241069    -0.98695868
O       1.48791001     3.75751699     3.71384299    -0.02446508    -0.05359672     0.41699606
O       2.94333599     5.98867301     3.14137698     0.51229301    -0.00754285     0.46975358
O       3.04848398     1.47728598     3.26090600    -0.58113561    -0.14960124     0.06182631
O       5.93201802     6.04190300     3.19753999    -0.36904523    -0.14834114     0.09716999
O       5.88771102     1.51466600     3.30223199     0.20265057    -0.33646780    -0.02029990
O       2.91386399     7.83700199     1.41143701     0.68988251     0.13688687     0.15109582
O       2.93765702     3.28375000     1.47439598     0.41009959    -0.04363472    -0.34668691
O       0.02562398     7.80222102     1.38598502    -0.65517338     0.18842876     0.42693724
O       5.93211401     3.21076100     1.42490500    -0.03388535     0.34377539    -0.16514742
