# total energy = -19928.22336773 eV

CRYSTAL
PRIMVEC
        6.18695779     0.00000000     0.00000000
        0.32906797     6.57656647     0.00000000
        0.00000000     0.00000000    11.07675654
PRIMCOORD
24 1
Ti      2.43747991     3.89726704     4.10939767    -0.00902020    -1.10367884     0.67598210
Ti      4.07854559     2.67929918     6.96735900     0.00902020     1.10367884    -0.67598210
Ti      5.46991401     2.67930143     1.42893640     0.07842896     0.60444035    -0.55470851
Ti      1.04611156     3.89726504     9.64782040    -0.07842896    -0.60444035     0.55470851
Ti      2.27294606     0.60898405     1.42898079    -0.00902020    -1.10367884    -0.67598210
Ti      4.24307945     5.96758236     9.64777600     0.00902020     1.10367884     0.67598210
Ti      0.88157769     0.60898161     6.96731454    -0.07842896    -0.60444035    -0.55470851
Ti      5.63444788     5.96758480     4.10944213     0.07842896     0.60444035     0.55470851
O       2.07408153     2.31572075     5.65238408     1.49192739     1.46253838    -0.13195061
O       4.44194397     4.26084547     5.42437259    -1.49192739    -1.46253838     0.13195061
O       1.25117558     2.31574729     0.11404141    -1.27050133     1.07307781     0.19068851
O       5.26484999     4.26081899    10.96271494     1.27050133    -1.07307781    -0.19068851
O       4.27741011     0.97256229     0.11400549    -1.49192739    -1.46253838    -0.13195061
O       2.23861539     5.60400393    10.96275086     1.49192739     1.46253838     0.13195061
O       5.10031613     0.97253582     5.65242006     1.27050133    -1.07307781     0.19068851
O       1.41570931     5.60403053     5.42433661    -1.27050133     1.07307781    -0.19068851
O       0.42494427     4.00024039     2.99210833     0.46447999     0.06367905     0.57862801
O       6.09108130     2.57632583     8.08464840    -0.46447999    -0.06367905    -0.57862801
O       3.44718466     2.57626456     2.54630522     0.52375319     0.60580561    -0.08850023
O       3.06884091     4.00030166     8.53045125    -0.52375319    -0.60580561     0.08850023
O       0.26041041     0.71195721     2.54626987     0.46447999     0.06367905    -0.57862801
O       6.25561515     5.86460901     8.53048660    -0.46447999    -0.06367905     0.57862801
O       2.90430705     0.71201849     8.08468368    -0.52375319    -0.60580561    -0.08850023
O       3.61171851     5.86454773     2.99207292     0.52375319     0.60580561     0.08850023
