# total energy = -4983.65736712 eV

CRYSTAL
PRIMVEC
        4.18468933     0.00000000     0.00000000
        0.00000000     3.53057429     0.00000000
        0.00000000    -0.00007975     5.54250249
PRIMCOORD
6 1
Ti      2.09234455     1.76524721     2.77125142     0.00000000     0.00000000     0.00000000
Ti      0.00000000     0.00000000     0.00000000     0.00000000     0.00000000     0.00000000
O       2.09234455     0.68804138     1.08015216     0.00000000     0.27763322     1.79248406
O       2.09234455     2.84245311     4.46235062     0.00000000    -0.27763322    -1.79248406
O       0.00000000     1.07717406     3.85140463     0.00000000    -0.27745324     1.79176723
O       0.00000000     2.45332037     1.69109820     0.00000000     0.27745324    -1.79176723
