# total energy = -39036.13067636 eV

CRYSTAL
PRIMVEC
        7.60600008     0.00000000     0.00000000
        0.00000000     7.60600008     0.00000000
       -3.79573973    -3.79573973     9.71340985
PRIMCOORD
46 1
Ti      1.94157647     4.91477842     6.12979463    -0.46989987    -0.44758475    -0.11203715
Ti      3.81453399     6.79991798     1.25535698    -0.43689564     1.29276606    -1.03204916
Ti      1.90190844     0.84259846     6.08766064     0.13186910    -0.24512161    -0.35764650
Ti      3.70872801     2.92202300     1.30273702     0.06391353    -0.87165983    -0.55661087
Ti     -1.89382356     4.55249447     6.16611561     0.95982196     0.77086998    -0.76049609
Ti     -0.17285099     6.61339602     1.21504103     2.21967198     0.77052545    -0.61863105
Ti     -1.87818056     0.72628445     6.07142564     0.51654973    -0.34423793    -1.39297022
Ti     -0.18328499     2.90636798     1.07428602     0.48199897    -0.64656686     0.87647422
Ti      3.93694047     1.02832147     8.39809164    -0.59536384     0.36749588     0.17331427
Ti      5.70052298     2.85129799     3.63914401    -0.76732160    -0.61092339     1.33462672
Ti      3.94376743    -2.79706854     8.50840065    -0.76802145    -0.62968551     0.37409128
Ti      5.62009201    -1.05861300     3.57143398     0.57545295     0.45319618     1.98638105
Ti      0.07222047     0.99268546     8.43298564     0.19585051     0.49918758     0.87025112
Ti      1.70673797     2.76216401     3.58697401    -0.14167375    -0.76936743    -0.04815858
Ti      0.11325944    -2.71382255     8.52976560    -0.03946619     0.07676134     0.97372804
Ti      1.84079101    -1.01619601     3.50335898     0.15029209     1.09563925     1.44211044
O       2.04330846    -0.95677554     5.72412460     0.32994953    -0.26732952    -1.13001697
O       4.06492399     1.13160898     0.86075400    -0.76949367    -1.81533989    -0.88378079
O      -1.72303954     2.75561443     5.69361764    -0.18709359     0.78626112     0.13612994
O       0.01882601     4.73431898     0.93771902     0.57588593     0.90785378    -1.36398359
O      -2.06587057    -1.16596756     5.68898263     0.25314834     2.76437067    -0.41550945
O      -0.26493899     0.90719301     0.75084399     0.67124844     0.53007708    -0.38537457
O       3.94405547     2.89480345     8.92685762    -0.00762127    -0.93251915    -0.32721131
O       5.69180399     4.77847200     4.06857802    -0.60194407    -0.89708934    -0.29811155
O       3.83087848    -0.89324352     8.86268963     0.06907528     0.10508771    -0.10600379
O       5.86887998     0.99599900     4.14841398    -0.39062039    -1.97608892    -0.12893624
O       0.03008547     2.92811246     9.06095663    -0.15380499    -0.79123312    -0.73407696
O       1.96807502     4.50571002     4.17819401    -0.17315178     1.21013875     0.06299642
O       0.02293544    -0.80604654     9.01918661    -0.03756409     0.26681067    -0.17823562
O       1.64085699     0.87405799     3.99057099     0.29267804     0.58767084     0.91733652
O       1.93702644     1.05971544     8.01810861     0.85720174     0.40798383     0.24940044
O       3.90512400     2.64791199     3.14161701    -1.46272967     0.69882713     0.70461725
O       1.91398247    -2.78156253     8.06293961     1.07999048    -0.14141973     0.09271247
O       3.77508398    -0.69150899     3.19372901     0.92826963    -0.93161464     0.84850395
O      -1.82637553     0.91078744     8.12939263    -0.89923338     0.36529836    -0.47887405
O      -0.18345400     3.04165601     3.27025899     2.30346400    -0.41384620    -0.84289663
O      -1.76998254    -2.70382354     8.13950563    -1.58744082    -0.53674884    -0.09886255
O      -0.06161798    -0.94559900     3.16329597     0.14696431    -0.52068844     0.15626682
O       3.85273847     4.60202345     6.41107361    -0.66207705    -0.42249308     1.39856160
O       5.70574098     6.42143797     1.55206698    -2.23821812    -0.11337026     0.63657967
O       3.85832843     0.99607245     6.35193160    -0.30107655     0.22505800     1.21689252
O       5.67086900     2.93840601     1.37807302    -0.59978100     0.83824808     1.13672781
O       0.00694847     4.94099244     6.45338462     1.01420184    -0.86167521     0.37661147
O       1.96649098     6.85868100     1.68918802    -1.14676360    -0.89845331    -1.04341190
O       0.06034346     0.60039646     6.54959962    -0.51948207     0.70549297    -0.82970301
O       1.74143602     2.68269402     1.78200502     1.13924029     0.35943598    -1.84072491
