# total energy = -4989.29584989 eV

CRYSTAL
PRIMVEC
        3.83357319     0.00000000     0.00000000
       -0.00000774     3.46847137     0.00000000
       -1.91681364    -1.73427050     4.67119457
PRIMCOORD
6 1
Ti     -0.00016758     2.60148385     1.16779841    -0.00085438    -0.00364840     3.19866872
Ti      1.91691908    -0.86728288     3.50339560     0.00085438     0.00364840    -3.19866872
O       0.00003895     0.86711131     0.76089935     0.00069008     0.00318483     0.19848744
O       1.91671240     0.86708956     3.91029477    -0.00069008    -0.00318483    -0.19848744
O      -0.00001966    -0.86709919     3.09649653     0.00031187    -0.00014013     0.79570350
O       1.91677101     2.60130001     1.57469758    -0.00031187     0.00014013    -0.79570350
