# total energy = -19072.93885658 eV

CRYSTAL
PRIMVEC
        5.93400000     0.00000000     0.00000000
        0.00000000     9.29699974     0.00000000
        0.00000000     0.00000000     4.64899994
PRIMCOORD
22 1
Ti      4.40843401     6.86833599     2.42704500    -0.16169108     0.41300082     0.35109918
Ti      4.51190599     2.24181799     2.21253702    -1.24549991    -0.56462115     1.20303016
Ti      1.47562801     7.10509598     2.56123001     1.15226114     0.53408003     1.79036315
Ti      1.63893100     2.56318299     1.98099102    -0.24787861    -0.39819589     0.19206251
Ti      2.97905101     4.58608601     4.54699801     0.41682303     0.12904680    -0.12338960
Ti      2.87384300     9.29273399     4.63711801     1.39963478     0.54277371    -0.41881281
Ti      5.89260300     4.56208697     4.53831199    -0.22490193     0.51197419     0.13523442
Ti      5.83289302     9.12756698     0.28973698    -0.12517369    -0.41203100    -0.36288126
O       4.28705599     5.44113098     0.83247397     0.85391896     0.90428688     2.56864537
O       4.40049000     1.02736302     0.69337899     1.33374123    -1.42972235     0.80758149
O       1.57359798     0.76073802     1.09211601    -1.15857859     1.35306282    -0.03291605
O       4.50194799     8.38503202     3.66244099     0.15210421     1.43829750     1.39792833
O       4.44913801     3.78452001     3.67255298     0.08650737    -1.05034900    -1.95601219
O       1.39341800     8.65419602     3.74167099    -0.86139264    -0.90935093    -1.05645203
O       1.40456999     3.77188098     3.45091201     0.07047679     0.53897361     0.12189219
O       2.92701801     6.32947300     3.58802602    -0.70113804    -1.47239317    -0.72909442
O       3.05100102     1.47920398     3.23820498    -0.16220942     0.10492933    -0.56869069
O       5.87835802     6.38505698     3.77994300     1.52941871    -1.72530162    -1.81012466
O       3.06978898     7.95628002     1.56512998    -0.69913720    -1.12605567    -0.53238644
O       3.26512402     3.09778002     1.27690597    -1.63827180     1.69889227    -1.16368609
O       0.10281501     7.75955102     1.56365601    -1.49947049     0.38853934    -1.53832013
O       5.84160698     2.98622898     1.02567997     1.73045668     0.53016321     1.72492907
