# total energy = -19959.99542742 eV

CRYSTAL
PRIMVEC
        7.60600008     0.00000000     0.00000000
        0.00000000     7.60600008     0.00000000
       -1.89786986    -1.89786986     4.85670466
PRIMCOORD
24 1
Ti      3.75900499     6.53644999     1.23682000     0.36305893    -0.99236391     0.61361585
Ti      3.80704401     2.81389003     1.16416698    -1.37101736     0.97536403    -0.43373781
Ti      0.06974800     6.62878698     1.21043703    -0.23680023     1.88564133     0.94532531
Ti     -0.03026000     3.03595100     1.17515900     1.72408343    -2.43115172     0.52382955
Ti      5.75033422     2.93345323     3.60785281     0.75363561    -0.96582061    -1.43036667
Ti      5.70621423    -0.96619479     3.65883782     0.15705075     0.85116093     0.18145619
Ti      1.93690621     2.92710522     3.61939681    -0.61339602    -2.63146490     0.03224576
Ti      1.85755524    -1.08058878     3.73887582    -0.30521834     1.01770806    -0.42470089
O       3.66132299     4.65722299     0.68102302     1.02668018     1.06963665     1.91545380
O       3.55512998     0.76402400     0.81869399     0.82338272     1.77318072     0.13521179
O      -0.01722599     4.83353098     0.65780701    -0.36872230    -0.40541658     0.55939255
O       0.02091600     1.02122002     0.78111700    -0.18831615    -1.07149838    -0.06545234
O       5.97116825     4.73277225     4.01789284    -0.57577666     0.69058520     0.32772399
O       5.97840221     0.94084222     4.00288780    -1.33719243     0.83883300     0.34655218
O       1.64394421     4.61547524     4.13613379     0.46514796     3.03694293     0.19489458
O       1.73543520     0.95359222     4.11707780     0.96116459    -2.30627268    -0.43907362
O       3.72096725     2.94490124     3.12130179     3.75929463    -0.66117151     1.31854369
O       3.74139122    -1.14017679     3.31978083     0.50352991     0.30778327     0.12701691
O       0.09827621     2.79838524     3.17813183    -2.86266244     0.18353184    -1.07587852
O      -0.00545280    -0.96436876     3.20540181     0.25942775    -0.20587653    -0.67391416
O       5.66564200     6.54419101     1.64903702     0.15717597     0.28771992    -0.21109536
O       5.73992298     3.06621999     1.55052601    -0.53491641    -0.52420108     0.37572393
O       1.91850899     6.48378199     1.69908300    -1.28651288     0.08240851     0.08859331
O       1.95459899     3.21419298     1.77847203    -1.27310123    -0.80525772    -2.93136028
