# total energy = -19072.09488452 eV

CRYSTAL
PRIMVEC
        5.17600016     0.00000000     0.00000000
        0.00000000     5.50899976     0.00000000
        0.00000000     0.00000000     9.26300011
PRIMCOORD
22 1
Ti      1.77681898     3.39509201     3.30437802     0.31569405     0.18927774     0.59746777
Ti      3.62873901     2.35188500     5.99386799    -0.44605597     0.00455574     0.01650803
Ti      4.36237199     2.13339999     1.64952698     1.19614988    -1.69775944    -1.69024487
Ti      1.16931800     2.91018901     7.95781998    -1.11546992    -0.75687057     1.06400516
Ti      1.82946101     0.48174598     1.12439302    -0.66117999    -0.13614819    -1.93094701
Ti      3.42179700     5.24616901     7.79895203    -0.66346493     0.44628505     1.10104320
Ti      1.05800302     5.35163203     6.26560602    -1.99400334    -0.12880949     0.94778791
Ti      4.19673400     5.23164701     3.64357100    -0.77698252    -1.10867346     0.28063807
O       3.24989202     3.68578802     4.79498698    -0.14893455     1.59659369    -3.29127732
O       0.84518301     2.63566498     0.51734998    -0.82920550    -1.04438301    -1.15365390
O       4.95301000     3.85919501     6.98070001    -0.88402633    -0.52777260     0.30661779
O       3.45745000     0.74944098     0.10870698     0.65758533     0.32672306     0.91030327
O       1.39541099     5.32213500     8.59594599    -0.38687404    -1.58361939     1.66724352
O       3.77164200     1.32469698     4.34336098    -0.06396830    -1.25682125     1.96378490
O       0.67555001     4.86467502     4.47570101     1.35224676     0.32985955     1.05758100
O       5.09057502     3.08405703     2.93853799     1.09387136     0.64803856     0.53395045
O       4.69499799     0.95196299     7.03478298     1.23067055     0.64948327    -1.23730709
O       2.58389599     1.96079502     2.21494298    -0.98483623     0.47101753     0.52988450
O       2.22087802     3.91263102     6.74388001     1.21213135    -0.43138011     1.01010942
O       5.06124500     0.33800001     2.14590000     1.53183015     1.36388512    -1.15932447
O       2.25665701     1.19317299     7.00213597     0.61851535     2.20918624    -1.64802503
O       2.66135701     4.65559302     2.30236401    -0.25369316     0.43733221     0.12385446
