# total energy = -19960.09465527 eV

CRYSTAL
PRIMVEC
        7.60600008     0.00000000     0.00000000
        0.00000000     7.60600008     0.00000000
       -1.89786986    -1.89786986     4.85670466
PRIMCOORD
24 1
Ti      3.73435099     6.55841402     1.27388898     0.38578132    -1.32863348    -0.31714364
Ti      3.71136898     2.74349601     1.23288499    -0.05335967     1.50345493    -0.03898205
Ti      0.08257800     6.75260101     1.21434098    -0.17347085    -0.12807595     0.53206120
Ti     -0.02340900     2.96767301     1.07629102     0.11958385    -0.15564436     0.58784028
Ti      5.71501323     3.12421824     3.59635781     0.76623942    -1.49461393    -0.66069971
Ti      5.71465725    -0.89302778     3.58541379     0.82604433     0.84356538     0.20437527
Ti      1.80094724     2.71745123     3.63150883    -0.08516628    -0.06677723     0.22903524
Ti      1.89203823    -1.15862380     3.73919079    -0.40266010     0.42281859    -0.85768717
O       3.58049101     4.71613899     0.72824299     0.70587118    -0.93378953     0.23979454
O       3.70655400     0.86455000     1.03954601     0.52664748    -0.14731681    -1.45300755
O       0.16648101     4.74146399     0.82431401    -0.29206611     2.64375812    -1.06529817
O       0.23616599     1.08580499     0.75295102    -1.28504941    -1.63805069    -0.30043300
O      -1.41811676     4.87829520     4.13539284    -1.79504488    -0.48082218     0.18770191
O       5.76711221     1.07474820     3.94695880    -0.94422950    -0.98369081    -0.00232839
O       1.61076522     4.64278624     4.13285982     0.92576897     1.84086658    -0.05687874
O       2.01537124     0.85704325     4.02246879    -0.09759860    -0.79321699     0.58471973
O       3.72623124     2.92180223     3.11137580     1.60819014     0.35487176     1.34215311
O       3.81142523     6.20352924     3.21449779     0.43269651     0.89314372     0.74853531
O      -0.04765379     2.92816924     3.25323182     0.34245384    -0.92411653    -0.64238625
O      -0.00891177    -0.87855579     3.25501483     0.63176168     0.38671103    -0.79499799
O       5.73514101     6.57010201     1.50446600     0.20305243     0.48298088     0.72445538
O       5.79100202     3.24784400     1.59757199    -1.51063525    -1.11210794     0.47742215
O       1.89950799     6.45875899     1.71554100    -0.43403528     0.72606875     0.92328452
O       1.89052700     2.80913902     1.66443999    -0.40077625     0.08861670    -0.59153521
