# total energy = -4989.45230835 eV

CRYSTAL
PRIMVEC
        3.61299080     0.00000000     0.00000000
       -0.00000804     3.61299080     0.00000000
       -1.80652374    -1.80652776     4.61097980
PRIMCOORD
6 1
Ti     -0.00015911     2.70987995     1.15274483     0.00216050    -0.00235410    -0.00092483
Ti      1.80661803    -0.90341700     3.45823468    -0.00216050     0.00235410     0.00092483
O       0.00003609     0.90324156     0.75109088     0.00028745     0.00134392     1.00546369
O       1.80642273     0.90322128     3.85988867    -0.00028745    -0.00134392    -1.00546369
O      -0.00002041    -0.90322588     3.05658073     0.00128375     0.00015504     1.00546292
O       1.80647918     2.70968867     1.55439882    -0.00128375    -0.00015504    -1.00546292
