# total energy = -19947.62884437 eV

CRYSTAL
PRIMVEC
        6.03233972     0.00000000     0.00000000
        0.00003002     5.80878267     0.00000000
        0.00000000     0.00000000    10.30820980
PRIMCOORD
24 1
Ti      2.18645083     3.44227918     3.82427241     0.12350401    -0.57100751     0.43834780
Ti      3.84591891     2.36650338     6.48393775    -0.12350401     0.57100751    -0.43834780
Ti      5.20251556     2.36650537     1.32979150     0.12377141     0.57120806    -0.43858717
Ti      0.82985424     3.44227748     8.97841883    -0.12377141    -0.57120806     0.43858717
Ti      2.18643588     0.53788796     1.32983285     0.12350401    -0.57100751    -0.43834780
Ti      3.84593392     5.27089477     8.97837748    -0.12350401     0.57100751     0.43834780
Ti      0.82983923     0.53788584     6.48389645    -0.12377141    -0.57120806    -0.43858717
Ti      5.20253052     5.27089695     3.82431376     0.12377141     0.57120806     0.43858717
O       1.90928420     2.04537106     5.26020069     1.00963119     1.00786819    -0.21764345
O       4.12308560     3.76341150     5.04800946    -1.00963119    -1.00786819     0.21764345
O       1.10694215     2.04539455     0.10612880    -1.01035161     1.00758382    -0.21775092
O       4.92542771     3.76338807    10.20208112     1.01035161    -1.00758382     0.21775092
O       4.12307059     0.85902010     0.10609538    -1.00963119    -1.00786819    -0.21764345
O       1.90929921     4.94976245    10.20211454     1.00963119     1.00786819     0.21764345
O       4.92541269     0.85899667     5.26023417     1.01035161    -1.00758382    -0.21775092
O       1.10695699     4.94978594     5.04797604    -1.01035161     1.00758382     0.21775092
O       0.21918722     3.53323092     2.78450470    -0.05767758    -0.13470606     0.16874876
O       5.81318258     2.27555169     7.52370545     0.05767758     0.13470606    -0.16874876
O       3.23536242     2.27549763     2.36963315    -0.05778685     0.13512875    -0.16841220
O       2.79700732     3.53328499     7.93857689     0.05778685    -0.13512875     0.16841220
O       0.21917221     0.62883953     2.36960020    -0.05767758    -0.13470606    -0.16874876
O       5.81319754     5.17994309     7.93860978     0.05767758     0.13470606     0.16874876
O       2.79699237     0.62889359     7.52373834     0.05778685    -0.13512875    -0.16841220
O       3.23537743     5.17988896     2.78447181    -0.05778685     0.13512875     0.16841220
