# total energy = -19961.56126163 eV

CRYSTAL
PRIMVEC
        7.60600008     0.00000000     0.00000000
        0.00000000     7.60600008     0.00000000
       -1.89786986    -1.89786986     4.85670466
PRIMCOORD
24 1
Ti      3.81791601     6.64813999     1.20642200     0.71944044    -0.54239010    -1.74492095
Ti      3.79518902     2.78015900     1.21537298     0.55803527     0.55270408    -0.90872410
Ti      0.01926898     6.70034598     1.23238201    -0.93899499    -0.14138553     0.15213737
Ti     -0.06249102     2.82779601     1.23321699    -0.25344427     0.31839011     0.84209162
Ti      5.65049620     2.89189721     3.67260283     1.52210855     0.14489612     0.47192076
Ti      5.64484925    -0.87932680     3.63889683     1.63533715    -0.57499504    -0.12429566
Ti      1.98240022     2.81921424     3.60324881    -1.42121045     0.05466733     1.31484336
Ti      1.98136620    -0.96366379     3.53622480    -1.54920002    -0.14121198     1.46441014
O       3.82165201     4.71173100     0.80770102    -0.29077619    -0.68831980     0.23375682
O       3.94151600     0.87071798     0.65573798    -0.49651594     0.70277917     0.93582636
O      -0.16221198     4.76117801     0.78117998     0.55584777     0.29718955     0.40437323
O      -0.14078401     0.97730000     0.78794900     0.30493475    -0.70814661     0.34379622
O       5.75186121     4.80890821     4.12016380    -0.12196804    -0.55481573    -0.38440038
O       5.63056723     0.91218024     4.16501983     0.01474271     0.96063006    -1.22005652
O       1.87830623     4.64260124     4.05916184     0.08664030     0.92424045    -0.72390953
O       2.06114624     0.87584222     4.08651379    -0.37461938     0.57981637    -0.14160716
O       3.81042022     2.86706525     3.22745681    -0.13262346    -0.15059780    -0.20477790
O       3.83560921    -0.95133576     3.10088380    -0.59079422    -0.35242124     1.28830262
O      -0.09648875     2.75643222     3.18436580     0.50906962     0.06286812     0.96348141
O       0.00411324    -0.87181677     3.27620282     0.19269705    -0.21633733    -0.66036007
O       5.68262102     6.68765398     1.63065102     0.77702983    -0.06074851     0.10581148
O       5.67914401     2.76985100     1.68364299    -1.08193887     0.23482640    -0.39196842
O       1.91711699     6.82764898     1.62880202    -0.43322436    -0.44272613    -0.54061012
O       1.85079500     2.83268698     1.73788000     0.80942703    -0.25891173    -1.47511982
