# total energy = -4988.17573359 eV

CRYSTAL
PRIMVEC
        4.10877439     0.00000000     0.00000000
        0.81361015     4.02741425     0.00000000
       -2.46122970    -2.01373775     5.27039136
PRIMCOORD
6 1
Ti      0.61006598     3.02071470     1.31759798     0.00007610    -0.00007610    -0.00000000
Ti      1.85108886    -1.00703820     3.95279355    -0.00007610     0.00007610    -0.00000000
O       0.20344559     1.00684767     0.85850375    -0.00067517    -0.00143210    -1.07882680
O       2.25770913     1.00682872     4.41188784     0.00067517     0.00143210     1.07882680
O      -0.20341862    -1.00682561     3.49369931    -0.00143210    -0.00067517    -1.07882680
O       2.66457321     3.02050191     1.77669221     0.00143210     0.00067517     1.07882680
