# total energy = -19517.76945908 eV

CRYSTAL
PRIMVEC
        7.60600008     0.00000000     0.00000000
        0.00000000     7.60600008     0.00000000
       -1.89786986    -1.89786986     4.85670466
PRIMCOORD
23 1
Ti      3.82051602     6.63750501     1.27069899     0.21778460    -0.98857256    -0.25106729
Ti      3.65254500     2.75762298     1.32459903     1.24905806     0.72492023    -0.90857060
Ti     -0.03114600     6.70663202     1.16717001     0.11372893    -0.07842536    -0.87791198
Ti      0.00643199     2.93173801     1.08543901    -1.06905352     0.21497567     1.89086556
Ti      5.61760625     2.88366824     3.52285482     0.89446861     1.90485133     2.47460646
Ti      5.77229820    -0.79259078     3.64598781    -0.71159472    -2.51955759    -0.47404629
Ti      1.80110425     2.72303923     3.73138479     1.38326070    -0.38106077     1.15530866
Ti      1.88707624    -1.07904279     3.65234682     0.65618845     0.68043833    -0.20783726
O       3.95226099     4.70802602     0.81532498    -1.31625850    -0.69410221     0.70654687
O       3.99189600     0.91574298     0.74183999    -0.84589891    -0.36166976     0.56913781
O      -0.03945900     4.87983098     0.69185798     0.39936472    -0.45380785     1.08655991
O      -0.15237199     1.02335101     0.69674303     0.26280489    -1.02692675     0.45008103
O       5.89888121     4.79421121     3.80746482    -0.03050049    -0.09869929     1.53348954
O       5.80790823     1.00879123     4.13214279     0.04238002     1.15112754    -2.21430814
O       1.87169623     4.58164722     3.96734683    -0.48029768     2.10367482     0.22886015
O       2.14941723     0.89855123     4.15662882    -1.00604450    -0.17478237    -0.28751860
O       3.85598021     2.84250423     3.20526783    -2.46770253    -0.30116859     0.11088144
O       3.89092623    -1.01453079     3.18386679    -1.01583449     0.24449915     0.08812099
O       0.00957922    -0.67240479     3.39372880     1.34824046    -0.74391247    -1.51853343
O       5.70481101     6.61804198     1.52879001     1.64648545     0.55713435     0.57405299
O       5.76543001     2.87172100     1.78324901     1.42422276    -0.12572133    -2.93986524
O       1.94749500     6.64905701     1.61194301    -1.26629140     0.10764184     0.48613280
O       1.71956502     2.69291698     1.81691199     0.57148908     0.25914287    -1.67498588
