# total energy = -19068.21572340 eV

CRYSTAL
PRIMVEC
        5.17600016     0.00000000     0.00000000
        0.00000000     5.50899976     0.00000000
        0.00000000     0.00000000     9.26300011
PRIMCOORD
22 1
Ti      1.97573602     3.31150598     3.24963399    -2.85935317     2.82892441     0.22608027
Ti      3.45187099     2.35992199     6.16279598     0.76703441     1.18121022    -2.32106938
Ti      4.45754102     2.07460999     1.41343900     0.22865343     0.83377410     2.74285953
Ti      1.04440200     2.45134402     7.80461502    -0.31065288    -0.99907449    -0.28533985
Ti      2.04275600     0.66844199     1.33465599    -2.81408271     1.09601849     1.68347644
Ti      3.22674602     0.12531600     8.00974100     1.99718585    -2.67369554    -2.07663271
Ti      0.85201400     5.13071502     6.13399201    -2.04644898     0.39296395    -1.71590372
Ti      4.22507499     5.12282102     3.49457998     3.53489920     0.25098398     2.50676403
O       3.46188799     3.55240800     4.25255802     0.63460403    -0.08898463     3.42021382
O       0.89197398     2.01442602     0.64775301     2.34299344     0.71414705    -4.31051930
O       4.38866400     4.35792801     6.84722801     2.28566476    -0.92417180     1.88219117
O       3.64214201     0.67055902     0.46224199     0.62535320    -1.80748182    -0.83886463
O       1.46887698     0.37863601     7.85783501    -2.13114603     1.37263330     2.15990795
O       4.37970699     0.48451300     5.28355200    -0.66610571     2.38518526    -1.23554280
O       0.96212600     4.60146501     4.33647299     0.31149106    -0.38918597     1.37832212
O       0.10872899     3.25059800     2.51722500     0.25931642     3.03945901     0.40874385
O       3.80889698     1.93182802     7.89447000     1.33553741     0.52821251    -0.46819909
O       2.85562899     1.91038401     2.70462000     0.53054785    -3.65408479    -2.30447368
O       2.16343900     3.78036099     7.05986000    -1.52039054    -0.21934115    -0.01417013
O       0.20657598     0.87443403     2.56128801    -0.32075269    -2.31802211    -0.30340083
O       1.87219302     1.50613900     5.91252498    -0.93701010     0.15794215    -0.49197126
O       2.85485300     4.75655998     2.26456001    -1.24733825    -1.70741136    -0.04247233
