# total energy = -19959.31629547 eV

CRYSTAL
PRIMVEC
        7.60600008     0.00000000     0.00000000
        0.00000000     7.60600008     0.00000000
       -1.89786986    -1.89786986     4.85670466
PRIMCOORD
24 1
Ti      3.84873699     6.66425302     1.19198599     0.63365452     0.98538105     2.14486159
Ti      3.61089701     2.84343002     1.22570300     2.09224497    -0.75500961    -2.10600501
Ti      0.20247502     6.73002800     1.21300602    -1.46540362     0.79912281     1.19299282
Ti     -0.10461898     2.77115499     1.21530397    -1.15385496     0.11910563     0.89080710
Ti      5.69235021     2.86150820     3.71934580     1.64925248    -1.13328947    -1.05792475
Ti      5.72045423    -0.99640975     3.56807783     0.46197213     1.92983141     0.28595306
Ti      2.00208222     2.80750921     3.70608181    -2.26374507    -1.12127830    -1.24445450
Ti      1.93433923    -1.07141978     3.68633281    -0.24236796     1.50945383    -0.46680992
O       3.97656801     4.84751899     0.72081900    -0.82257154    -0.78792745     0.08427848
O       3.95306799     0.92638198     0.76721398    -0.19918961    -0.81224881    -0.61480910
O      -0.04936398     4.71153398     0.96449502     0.62419620     2.26361472    -1.03311951
O      -0.24169800     0.92289100     0.71178198     0.73129837    -0.54733253     0.20316350
O       5.80437825     4.86355624     3.98046482     0.61682433    -2.82386473     0.93659409
O       5.75027924     1.01229020     4.17843479    -1.06202875     0.20029544    -0.87319709
O       1.48611721     4.71492924     3.64992282     1.13108218     0.25088577     1.63613702
O       1.88873822     0.85242422     4.05699380     0.25386465     2.37921850     0.87127571
O       3.73765925     2.99876323     3.11285279     0.65018287     0.19631331     1.56380569
O       3.81675923    -1.05249577     3.23730580    -0.55454911    -0.28210180    -0.68989203
O      -0.08151875     2.65301321     3.20898979     0.12962530     0.63416772     0.53996195
O      -0.08219477    -0.48267379     3.13710482     1.58431127    -1.92141439    -0.34223324
O       5.71614403     6.69562000     1.66889699    -0.96631863    -0.35879861    -1.32981901
O       5.63839101     2.78124900     1.61208002    -0.13140347     0.35186125     0.77626158
O       2.03925401    -0.50151297     1.77794100    -1.31688996    -1.53088810    -1.54752160
O       1.88026700     2.57093401     1.58712502    -0.38018685     0.45490211     0.17969318
