# total energy = -19938.46761277 eV

CRYSTAL
PRIMVEC
        6.92256926     0.00000000     0.00000000
        0.00002612     4.42062408     0.00000000
        0.00000000     0.00000000    10.57269465
PRIMCOORD
24 1
Ti      2.50911368     2.61965772     3.92239433     0.35602670     0.49450483     0.64233971
Ti      4.41348125     1.80096631     6.65030044    -0.35602670    -0.49450483    -0.64233971
Ti      5.97027921     1.80096779     1.36391082     0.35632186    -0.49464444    -0.64205766
Ti      0.95231578     2.61965640     9.20878401    -0.35632186     0.49464444     0.64205766
Ti      2.50910085     0.40934573     1.36395323     0.35602670     0.49450483    -0.64233971
Ti      4.41349408     4.01127841     9.20874165    -0.35602670    -0.49450483     0.64233971
Ti      0.95230289     0.40934413     6.65025803    -0.35632186     0.49464444    -0.64205766
Ti      5.97029204     4.01128001     3.92243668     0.35632186    -0.49464444     0.64205766
O       2.19104595     1.55657684     5.39516518     1.39678136     0.36497157    -0.31560200
O       4.73154903     2.86404713     5.17752959    -1.39678136    -0.36497157     0.31560200
O       1.27029731     1.55659469     0.10885182    -1.39626817     0.36487438    -0.31621341
O       5.65229773     2.86402933    10.46384261     1.39626817    -0.36487438     0.31621341
O       4.73153620     0.65373503     0.10881751    -1.39678136    -0.36497157    -0.31560200
O       2.19105878     3.76688894    10.46387692     1.39678136     0.36497157     0.31560200
O       5.65228484     0.65371723     5.39519943     1.39626817    -0.36487438    -0.31621341
O       1.27031003     3.76690679     5.17749528    -1.39626817     0.36487438     0.31621341
O       0.25152875     2.68887416     2.85594859    -1.27403505     0.52801608     1.00280105
O       6.67106624     1.73174981     7.71674612     1.27403505    -0.52801608    -1.00280105
O       3.71282134     1.73170871     2.43043237    -1.27333828    -0.52777825    -1.00325820
O       3.20977358     2.68891532     8.14226217     1.27333828     0.52777825     1.00325820
O       0.25151586     0.47856207     2.43039862    -1.27403505     0.52801608    -1.00280105
O       6.67107907     3.94206190     8.14229592     1.27403505    -0.52801608     1.00280105
O       3.20976075     0.47860322     7.71677981     1.27333828     0.52777825    -1.00325820
O       3.71283418     3.94202075     2.85591485    -1.27333828    -0.52777825     1.00325820
