# total energy = -19074.91249261 eV

CRYSTAL
PRIMVEC
        7.60600008     0.00000000     0.00000000
        0.00000000     7.60600008     0.00000000
       -1.89786986    -1.89786986     4.85670466
PRIMCOORD
22 1
Ti      4.01010001     6.68334801     1.15685402     0.84998311    -0.75193200     0.07462527
Ti      3.55280102     2.68488503     1.14912300     0.57436975     1.92202657     1.09749790
Ti      0.09700099     6.81470499     1.11179902    -1.10417043    -1.57793545    -0.58581810
Ti     -0.12008799     2.92650900     1.13885400    -0.83623773     1.03703813    -0.39460715
Ti      5.56869524     2.88546024     3.50493482     0.70997235    -0.61070099     0.92904945
Ti     -1.22940777    -0.90034276     3.83884280    -2.39147418     0.42170144    -2.95490028
Ti      1.82085822     2.81200324     3.68772682    -0.25365151    -0.77605410    -0.02645538
Ti      1.49230625    -0.99656575     3.78062383     1.66275771    -0.04824883    -0.85976205
O       3.75204498     4.58886202     0.73988399    -0.16053228     1.65419517     0.54137477
O       4.05023901     0.94653802     0.83658499    -0.72701003    -2.28704108     0.79725465
O      -0.21046999     4.75108702     0.67041799     0.73378874     0.79841216     0.36479674
O       7.33388698     1.02936998     0.55577899     0.59731377    -1.10846855     2.41991831
O       5.72082920     4.79724424     4.01910280     0.87052212     0.69917628    -0.53810638
O       5.65358025     0.98382925     4.00088482     1.21499505    -0.74285703    -0.59524686
O       2.29212221     4.77047422     4.17732881    -1.16824055    -0.31967772    -0.47912114
O       1.96254723     0.78655922     4.07638783    -0.94903567     0.65866802    -0.77665265
O       3.70599122     2.63050122     3.13754679    -0.42336315     0.60454114    -0.05479820
O      -0.06772580     2.83487624     3.20260379     0.78876101     0.26778769     0.83675529
O       5.92427801     6.61212700     1.84256698    -1.12553914     0.45197671     0.80167592
O       5.70148301     2.81446101     1.58495598    -1.43662448     0.30622159     0.35267604
O       1.83116199     6.74921798     1.88973101     0.99572769    -0.36086706    -0.26371609
O       1.71732099     2.83617299     1.67990699     1.57768759    -0.23796186    -0.68644032
