# total energy = -19514.64323158 eV

CRYSTAL
PRIMVEC
        5.93400000     0.00000000     0.00000000
        0.00000000     9.29699974     0.00000000
        0.00000000     0.00000000     4.64899994
PRIMCOORD
23 1
Ti      4.64087797     6.75653301     2.47956399    -0.37839351     1.70649631    -1.79268152
Ti      4.42650398     2.32666801     2.39480900    -0.20477276     0.14474365    -0.61815154
Ti      1.54390601     7.24864801     2.38212102    -0.70076702    -0.57076763    -1.15416092
Ti      1.45881901     2.30155702     2.25388698    -0.99916963     1.59587892     0.21957435
Ti      2.97415702     4.44729700     4.55948803    -1.77462311     0.25547236     0.73121918
Ti      3.02226701     9.29075598     4.56923103    -0.82719181    -0.35205589    -0.53410009
Ti      5.91821401     4.75177500     0.05525500     0.61860791     0.37419129    -0.72385297
Ti      5.91844701     0.17492197     0.17460902    -1.48848493    -0.79474371    -1.09363533
O       4.38868998     5.53808101     0.84975902    -0.47025957     0.13469037     0.07957182
O       4.23764401     0.84549300     0.91661199     1.17185963     1.52556231     1.08199440
O       1.44847402     5.60015001     0.66134303     2.20617882     0.30659465     0.39729909
O       1.48726102     0.71106399     0.97276500     0.41051534     0.82444742     0.33712523
O       4.45240700     8.52482901     3.84114002    -0.39692962    -2.47955867    -1.40854417
O       4.53533500     3.57524300     3.75341597    -2.01172879     1.54592829    -0.77980225
O       0.95862602     8.52949900     3.54809002     3.19326477    -0.53219593     0.97457239
O       1.47418701     3.71462802     3.50581701     1.24504148     0.68431350     1.10015000
O       2.76410201     1.28151199     2.99496898     2.11854660    -0.48543397     2.21751714
O       0.14303301     5.92513501     3.13201101     0.39404433     0.20995996    -0.33411215
O       5.86122601     1.61120502     3.40815698     0.09625391    -0.81049198    -1.09053998
O       3.16622799     7.67508301     1.57115498    -1.61885868     0.69941900     0.12156566
O       2.87149197     3.28317600     1.35227002     0.77312124    -0.53023006    -0.08014929
O       0.03353899     7.75642200     1.43503498    -1.05424782     0.45572718    -0.79830520
O       0.03817299     3.41018801     1.17661403    -0.30200755    -3.90794739     3.14744641
