# total energy = -19928.01018277 eV

CRYSTAL
PRIMVEC
        6.14766311     0.00000000     0.00000000
        2.22202194     6.15411373     0.00000000
        0.00000000     0.00000000    11.18065465
PRIMCOORD
24 1
Ti      3.54500043     3.64692200     4.14794315     0.05902535    -2.36815375     0.76291755
Ti      4.82468484     2.50719156     7.03271163    -0.05902535     2.36815375    -0.76291755
Ti      6.20721710     2.50719366     1.44233960    -0.60576113    -0.89988670     0.19941612
Ti      2.16246821     3.64692009     9.73831530     0.60576113     0.89988670    -0.19941612
Ti      2.43398961     0.56986530     1.44238442     0.05902535    -2.36815375    -0.76291755
Ti      5.93569568     5.58424839     9.73827048    -0.05902535     2.36815375     0.76291755
Ti      1.05145727     0.56986303     7.03266680     0.60576113     0.89988670     0.19941612
Ti      7.31822804     5.58425071     4.14798798    -0.60576113    -0.89988670    -0.19941612
O       2.72818594     2.16696799     5.70540249     1.80846964     2.12962523    -0.81218454
O       5.64149933     3.98714557     5.47525229    -1.80846964    -2.12962523     0.81218454
O       1.91051402     2.16699281     0.11511114    -0.33365578    -0.50694383     1.34916169
O       6.45917133     3.98712080    11.06554333     0.33365578     0.50694383    -1.34916169
O       4.53048849     0.91008875     0.11507486    -1.80846964    -2.12962523    -0.81218454
O       3.83919678     5.24402482    11.06557961     1.80846964     2.12962523     0.81218454
O       5.34816048     0.91006391     5.70543877     0.33365578     0.50694383     1.34916169
O       3.02152473     5.24404966     5.47521600    -0.33365578    -0.50694383    -1.34916169
O       1.57491848     3.74328073     3.02017376     0.56245037     2.23964663     2.16169255
O       6.79476679     2.41083283     8.16048102    -0.56245037    -2.23964663    -2.16169255
O       4.16764421     2.41077551     2.57018917     0.84247780     1.81926519     1.07315109
O       4.20204106     3.74333805     8.61046542    -0.84247780    -1.81926519    -1.07315109
O       0.46390764     0.66622390     2.57015344     0.56245037     2.23964663    -2.16169255
O       7.90577763     5.48788966     8.61050115    -0.56245037    -2.23964663     2.16169255
O       3.09103022     0.66628123     8.16051662    -0.84247780    -1.81926519     1.07315109
O       5.27865505     5.48783233     3.02013810     0.84247780     1.81926519    -1.07315109
