# total energy = -19516.72652395 eV

CRYSTAL
PRIMVEC
        5.93400000     0.00000000     0.00000000
        0.00000000     9.29699974     0.00000000
        0.00000000     0.00000000     4.64899994
PRIMCOORD
23 1
Ti      4.33180697     7.01435298     2.22857898     1.19771826     0.30721300    -0.25171624
Ti      4.58028898     2.35275899     2.36399099    -0.74903642    -1.05662120     0.37748488
Ti      1.37765000     6.97381901     2.16524799    -1.03366253    -0.33042982     0.66843616
Ti      1.49028601     2.36884000     2.28209398     0.00183320    -0.99930024     1.03576775
Ti      3.02249498     4.46100502     0.17570600    -1.97743438     0.35247652    -0.12281522
Ti      3.02685699     0.22782800     0.00384701    -1.78108815    -0.29720498    -0.73863348
Ti      5.91371500     4.54610101     0.01117898     1.03103692     1.43926655    -1.13175092
Ti      5.89543801     9.23732501     4.51026401     1.51328118    -0.23937262    -0.11934962
O       4.35648198     5.47863901     0.91843300     0.67422989     1.17285054     0.87483360
O       4.60996201     0.95498602     0.93804198    -0.50260149    -0.34956912    -0.54573510
O       1.43893100     5.46814299     1.09400200     0.46719019     0.49984012    -0.38427182
O       1.45519299     1.08773998     0.91961999     0.75280334    -1.13951052    -0.81912497
O       4.39807801     8.36529800     3.59248201     0.42060846     0.44885127     1.10080151
O       4.34334600     3.58826198     3.85798399     1.07321562     0.21087039     0.03759468
O       1.61676303     8.56505998     3.69348702    -0.86606794    -0.97900857     0.28176036
O       1.61428600     3.75885999     3.75909002    -1.04635119     0.05138634     0.69508386
O       3.11401401     1.36284298     3.10766500    -0.59032319     0.03962354     1.08193707
O       0.00530701     5.98223599     3.49733297    -0.05521935     0.86606691    -1.51760809
O       0.12957598     1.40214000     3.29916901    -1.23864406     0.76784559    -0.65196670
O       2.86172299     7.85367800     1.37972300     0.68403711    -0.37519994     0.40765627
O       2.84260302     3.38547797     1.59838999     2.29703059    -0.69653679    -0.27224290
O       5.85235499     7.65897200     1.27721099    -0.08066788     1.02398001     0.18912939
O       0.01361102     3.41680500     1.61979701    -0.19188818    -0.71751725    -0.19527047
