# total energy = -19517.80755027 eV

CRYSTAL
PRIMVEC
        5.17600016     0.00000000     0.00000000
        0.00000000     5.50899976     0.00000000
        0.00000000     0.00000000     9.26300011
PRIMCOORD
23 1
Ti      1.95175302     3.17751798     3.41957900     0.00792363    -0.23681412     2.49661332
Ti      3.34360000     2.33087201     5.90777699     1.10633479     0.24608475    -2.30578237
Ti      4.31784802     2.09889801     1.52467999     0.58165523    -0.16429252    -1.31899569
Ti      0.69536902     3.46479498     7.83175303    -0.88408238     0.07388582     0.29266930
Ti      1.99298302     0.12957699     1.40068799     1.20721180     0.92005470    -0.78341002
Ti      3.13187401     5.15290602     7.94077502    -0.06795942     1.25697141     1.09226262
Ti      0.81737300     0.59721002     5.83960600    -1.36391391    -0.80408736    -2.43495258
Ti      4.65367703     4.88166701     3.31750399    -0.43043548     1.00644302     3.32074269
O       1.83212298     1.79325099     4.78558599    -0.44181107     0.42426689    -0.57244528
O       3.58240102     3.51713802     4.44939000     0.53874401     0.20014966     0.25885491
O       4.75408698     2.92843102     9.18066298    -0.03029583     0.01982116     0.20733949
O       3.53612902     0.70492098     0.19273599    -0.76514053    -0.04995398     0.90678626
O       1.53991098     4.76471799     9.11812302     0.43119062    -0.90462190    -0.59530496
O       4.31715099     0.74449402     4.75986898     0.60170830    -0.46691585    -0.35987667
O       1.03537302     4.62763701     4.49305898    -0.08821870     0.15062454     0.00754311
O       0.33081002     3.39499300     2.45389402    -0.16408272    -0.82455180    -0.87147368
O       5.16943000     2.18727701     6.53032101    -0.48508739     0.69910069     1.39446891
O       2.72231701     1.73587098     2.43109500    -0.21892514    -0.14804495    -1.30632504
O       2.42742902     3.73142601     6.88863798    -0.14643132    -0.94820597     0.47845676
O       0.27442100     0.66135800     1.98268602    -0.13775564    -0.10233277     0.44673577
O       4.85008000     4.85982400     7.26419503     0.66904500     0.67486469    -0.87417077
O       2.40701998     1.02743901     6.95044700    -0.21805020    -0.98579397     1.36217507
O       2.97485299     4.42194602     2.33734601     0.29837715    -0.03665212    -0.84191087
