# total energy = -19066.39208108 eV

CRYSTAL
PRIMVEC
        7.60600008     0.00000000     0.00000000
        0.00000000     7.60600008     0.00000000
       -1.89786986    -1.89786986     4.85670466
PRIMCOORD
22 1
Ti      3.89346998     6.72626402     1.18962702    -0.74606628     0.97383345     1.30823048
Ti      3.50028600     2.94844498     1.26873299     3.71112757    -0.64056848     1.94984309
Ti     -0.20088098     6.68786099     1.10407499     0.12107792     0.56053746    -0.01413182
Ti      0.28328700     2.40618600     0.96267100    -0.42289469     1.14254982     3.78116316
Ti      5.85402322     2.90793525     3.62198480    -1.08392144    -0.14688409    -2.34802869
Ti     -1.33095180     0.05014822     3.44201982     2.43703903    -3.32350740    -3.03467470
Ti      1.78565121     2.70337125     3.84670881     1.20387142     1.32967657    -1.15628260
Ti      1.56702322    -0.97266377     3.98661984    -0.28938651     0.93237903    -2.09313277
O       4.03720601     4.96199601     0.71919602    -1.22764385    -3.02160706     1.69464429
O       4.45288701     0.82356400     0.75395100    -1.02691595    -0.05547826     0.80221585
O       0.47528499     4.16038498     0.69205600     2.87436585     5.57383130     1.56298268
O       6.90883001     0.88006299     1.05012997     0.78026248    -3.41110928     0.34877850
O       5.31005721     4.56652524     4.07791879     0.67156340    -0.13022694     1.50585043
O       5.16543021     1.13202920     4.26874180    -3.45293241    -0.89604007    -4.11604098
O       1.75862021     4.84722821     4.10529583    -1.00560896    -1.33738629    -0.42654463
O       1.86985422     0.91180622     4.36649280     0.76993101     1.21431010    -3.60858525
O       3.45992422     2.80731225     3.11289883    -1.01686294    -0.00194530     0.29169922
O       0.18988922     2.71541522     2.89820881    -0.78240729    -0.19690698     1.79634920
O       5.70274600     6.38674099     2.00980001     0.26230738     0.72916050     0.43379797
O       5.49064202     2.87103900     1.64852700    -0.76391231     0.61887556     2.14765998
O       2.07342500     6.78740500     2.01474602     0.29177892    -0.22825054     0.45395337
O       1.99486202     1.64162901     0.53511398    -1.30477209     0.31475714    -1.27974650
