# total energy = -4985.60729998 eV

CRYSTAL
PRIMVEC
        3.99184651     0.00000000     0.00000000
        0.00000000     3.36787502     0.00000000
        0.00000000    -0.00007608     5.28708762
PRIMCOORD
6 1
Ti      1.99592314     1.68389942     2.64354398     0.00000000     0.00000000     0.00000000
Ti      0.00000000     0.00000000     0.00000000     0.00000000     0.00000000     0.00000000
O       1.99592314     0.65633440     1.03037556     0.00000000    -0.25715052     1.10036108
O       1.99592314     2.71146449     4.25671234     0.00000000     0.25715052    -1.10036108
O       0.00000000     1.02753470     3.67392055     0.00000000     0.25739298     1.10046264
O       0.00000000     2.34026413     1.61316741     0.00000000    -0.25739298    -1.10046264
