# total energy = -19518.63804548 eV

CRYSTAL
PRIMVEC
        7.60600008     0.00000000     0.00000000
        0.00000000     7.60600008     0.00000000
       -1.89786986    -1.89786986     4.85670466
PRIMCOORD
23 1
Ti      3.74699499     6.65689502     1.12803698     0.36277585    -0.58585024     0.93257212
Ti      3.76074900     2.71054801     1.20197500     0.98422405     0.65143808     0.23149347
Ti     -0.05639098     6.72311198     1.17769000    -0.07597484    -0.81219148    -0.38868872
Ti      0.04972499     2.84718999     1.21299200    -0.95124862     1.01418667    -0.22007263
Ti      5.66932824     2.89899025     3.62833583    -0.84882303    -0.16876136     1.03914001
Ti      5.66873620    -0.84658179     3.58394680    -0.15110636    -0.17576248     0.13150683
Ti      1.94380224     2.79819622     3.70503880     1.12022646    -0.19521725     1.70587204
Ti      1.88077024    -1.01235275     3.55304481     0.38847583     0.63566590    -0.22514670
O       3.86144799     4.72699300     0.88148002    -1.05347674    -0.72861414    -0.24163262
O       4.03305900     0.87637902     0.71935302    -0.63552320     1.17224093     0.49364582
O       0.10201500     4.69071700     0.93416999     0.26677931     1.30517164    -0.24529747
O      -0.07789902     1.02539898     0.69921201    -0.00642262    -1.17022184     0.05767835
O       5.61095020     4.72285922     4.08094182     0.63195708     0.84223046    -0.21311831
O       5.77567424     1.03620822     4.11094680     0.50401534    -1.05445582    -1.17907955
O       1.91930022     4.75036221     4.03076883    -0.52920496    -0.85814482    -0.55420098
O       1.96855525     0.84067522     4.11078683    -1.06510199     1.20914964     0.64683375
O       3.79402821     2.75503525     3.55086280    -0.04707923     0.04314467    -1.55568074
O       3.79971724    -0.81658379     3.17073779     0.23077074    -0.46996081    -0.40311467
O       0.01400325    -0.95270479     3.19308384    -0.56436070     0.07958493     0.12304790
O       5.70188000     6.61881500     1.51777000     0.09840001     0.16719993     0.92599163
O       5.75600901     2.84616597     1.77197198    -0.14384505     0.01523302    -0.25381220
O       1.86588099     6.92655200     1.53742602     0.62411598    -0.77781196     0.42806981
O       1.83865498     2.72837398     1.85015797     0.86042642    -0.13825418    -1.23600688
