# total energy = -19517.57599680 eV

CRYSTAL
PRIMVEC
        5.93400000     0.00000000     0.00000000
        0.00000000     9.29699974     0.00000000
        0.00000000     0.00000000     4.64899994
PRIMCOORD
23 1
Ti      4.44731197     6.94027902     2.31923000     0.62557766     1.54567117    -0.69281743
Ti      4.50276700     2.42340902     2.32645100     0.19877797    -1.65716736     0.49616884
Ti      1.42360402     7.01118099     2.26854498    -0.49336711     0.97175291    -0.78888313
Ti      1.54935198     2.30652499     2.34198600    -0.27630139    -0.63254509     0.44620458
Ti      2.97938301     4.66305002     0.25390702     0.21840732     0.32615458    -0.12015078
Ti      2.90464001     0.03062799     4.55896599     1.52415566    -0.79520059     0.33788602
Ti      5.93221398     4.50564498     4.61572602    -0.03509197     0.34741813    -0.22321683
Ti      5.93082499     0.09445999     4.58774699    -1.43410531    -0.37051076     0.45252487
O       4.51396000     5.51375098     0.93092999    -0.81731157     0.28527017    -0.12531561
O       4.47449200     0.97405402     0.90279200     0.11697830    -0.23627007    -0.01797845
O       1.38847702     5.46598199     0.88733701     0.42585197     0.59157069    -0.02731027
O       1.54954201     0.88470102     0.91459302    -0.28236405     0.24454903     0.21702330
O       4.52162000     8.45069498     3.70176103    -0.61710175    -0.68848795    -0.36557630
O       4.34667701     3.70015402     3.84093401     0.19455159     0.27850303    -0.51892003
O       1.50981302     8.46680102     3.55549601     0.11412694    -0.52007240     0.54454005
O       1.35548800     3.50909902     3.82145102     0.96472994     1.19691144     0.17242955
O       3.00621399     1.40008399     3.26486700    -0.26167541     0.57449059    -0.70458511
O       5.88353300     6.16953098     3.16364999     0.60481136    -1.95656292     1.44238375
O       0.04582701     1.40055702     3.23584199    -0.15283183     0.30031447    -0.42563857
O       2.95091201     7.65683698     1.19896499    -0.16453704     0.27686446     1.08011184
O       3.05127100     3.34031402     1.50905402    -1.05135353    -0.77024289     0.38826835
O       5.91354503     7.80306601     1.38230702     0.04773075     0.79591870    -0.91994054
O       5.91443500     3.32380602     1.54339699     0.55034175    -0.10832936    -0.64720836
