# total energy = -19917.21823097 eV

CRYSTAL
PRIMVEC
        6.36618283     0.00000000     0.00000000
        2.90210557     6.12256257     0.00000000
        0.00000000     0.00000000    11.70891472
PRIMCOORD
24 1
Ti      4.02722009     3.62822487     4.34392382     0.12557015    -2.46079706     0.54714613
Ti      5.24106810     2.49433761     7.36499096    -0.12557015     2.46079706    -0.54714613
Ti      6.67274281     2.49433968     1.51048680    -0.82003000    -1.25171967     0.44047693
Ti      2.59554549     3.62822304    10.19842817     0.82003000     1.25171967    -0.44047693
Ti      2.57616746     0.56694369     1.51053373     0.12557015    -2.46079706    -0.54714613
Ti      6.69212077     5.55561899    10.19838124    -0.12557015     2.46079706     0.54714613
Ti      1.14449270     0.56694143     7.36494403     0.82003000     1.25171967     0.44047693
Ti      8.12379559     5.55562123     4.34397081    -0.82003000    -1.25171967    -0.44047693
O       3.03681770     2.15585834     5.97496956     1.80888153     2.09173564    -0.91601369
O       6.23147049     3.96670415     5.73394528    -1.80888153    -2.09173564     0.91601369
O       2.19008397     2.15588307     0.12054986     0.09328146    -1.06869948     1.71442302
O       7.07820431     3.96667953    11.58836467    -0.09328146     1.06869948    -1.71442302
O       4.78041783     0.90542284     0.12051182    -1.80888153    -2.09173564    -0.91601369
O       4.48787038     5.21713971    11.58840264     1.80888153     2.09173564     0.91601369
O       5.62715164     0.90539816     5.97500754    -0.09328146     1.06869948     1.71442302
O       3.64113650     5.21716441     5.73390725     0.09328146    -1.06869948    -1.71442302
O       1.99652322     3.72408966     3.16286999     0.66210096     2.94836814     2.76162807
O       7.27176491     2.39847284     8.54604486    -0.66210096    -2.94836814    -2.76162807
O       4.55125549     2.39841586     2.69162465     0.71663151     2.07408912     1.66402450
O       4.71703270     3.72414663     9.01728994    -0.71663151    -2.07408912    -1.66402450
O       0.54547054     0.66280829     2.69158725     0.66210096     2.94836814    -2.76162807
O       8.72281758     5.45975421     9.01732735    -0.66210096    -2.94836814     2.76162807
O       3.26598002     0.66286525     8.54608213    -0.71663151    -2.07408912     1.66402450
O       6.00230817     5.45969724     3.16283258     0.71663151     2.07408912    -1.66402450
