# total energy = -4987.29571894 eV

CRYSTAL
PRIMVEC
        3.78127817     0.00000000     0.00000000
        1.61957665     3.41687520     0.00000000
       -2.70046321    -1.70846025     4.95910801
PRIMCOORD
6 1
Ti      1.21458697     2.56278791     1.23977695     0.00051242    -0.00051242     0.00000000
Ti      1.48580490    -0.85437275     3.71933075    -0.00051242     0.00051242    -0.00000000
O       0.40493344     0.85421431     0.80779811    -0.00002674    -0.00002365    -2.22482216
O       2.29545830     0.85420072     4.15130964     0.00002674     0.00002365     2.22482216
O      -0.40489937    -0.85419280     3.28735196    -0.00002365    -0.00002674    -2.22482216
O       3.10529104     2.56260779     1.67175579     0.00002365     0.00002674     2.22482216
