# total energy = -19071.38718304 eV

CRYSTAL
PRIMVEC
        5.17600016     0.00000000     0.00000000
        0.00000000     5.50899976     0.00000000
        0.00000000     0.00000000     9.26300011
PRIMCOORD
22 1
Ti      1.42419003     3.05903700     3.69039700     1.80577512    -0.67445486     0.05446910
Ti      4.21213698     3.33033702     6.04046300    -1.01085401    -1.86413096    -5.28746173
Ti      4.18014202     2.22318999     1.37942899     0.73297962    -0.81537373     1.29262594
Ti      1.46074300     2.85998300     8.01210700    -1.17581836     0.45065824     0.13269006
Ti      1.62185302     0.43275999     1.44280601    -0.78972029     0.21029703    -0.63109422
Ti      3.35465700     5.25474602     8.10650498    -1.83434163    -0.40338464     0.02689118
Ti      1.37730900     0.28909001     5.65912798     1.93203768     0.88842086    -0.67608031
Ti      4.06129998     4.89920098     3.32509901    -1.43666305    -0.08402137     0.92806780
O       3.37501598     3.14121902     4.37526401    -2.35542756     0.08500893    -0.64838258
O       0.53566200     2.05114299     0.18463100    -0.35100148    -0.61153454     0.08770653
O       4.88598298     3.75551300     7.57192901     1.53232020     1.63802472     4.05580978
O       3.32327001     0.74529202     0.51260400     0.68734200    -0.48812643    -1.81631948
O       1.91522100     4.44125999     9.03912902     0.51634276    -0.20739477     0.08789757
O       3.08106802     0.17160800     4.60448000    -1.68105858     0.88048797     1.23190751
O       0.40217101     4.32232899     4.89054401    -0.04381470     1.45187164    -0.07526342
O       5.10130700     3.41853102     2.60037399    -0.58808582     0.12348679    -1.46314310
O       0.36101700     1.83347698     5.50286501     0.51851328    -0.38811948    -0.29550445
O       2.34056997     1.87197997     2.27912800    -0.17054494     0.81111856     0.92757286
O       2.48947701     3.98903701     6.67338799    -0.00136243     0.45657255     0.69820389
O       4.94614800     0.94438200     2.58113501     0.91869047    -1.68901846    -0.55930385
O       2.10261399     1.14931298     7.26399902     1.34947485    -0.49542425     0.65273314
O       2.13697898     4.44211402     2.36570499     1.44521659     0.72503568     1.27597829
