# total energy = -19076.05273514 eV

CRYSTAL
PRIMVEC
        7.60600008     0.00000000     0.00000000
        0.00000000     7.60600008     0.00000000
       -1.89786986    -1.89786986     4.85670466
PRIMCOORD
22 1
Ti      3.77363801     6.55442900     1.28144002     0.27364133     0.10355096    -1.97880246
Ti      3.79680999     2.81795199     1.17702102     1.05804765     0.12178446     0.89947018
Ti      0.31662802     6.78462100     0.98616499     0.00171750    -0.23145825     0.62775075
Ti      0.07877899     2.93045603     1.09711800    -1.31678197     0.13704911     0.87626056
Ti      5.65074825     2.91943221     3.55024779     0.85129720    -0.27012457    -0.24354372
Ti      5.98227324    -0.84268477     3.58634080     0.80633836    -0.51015205     0.39262302
Ti      1.90426725     2.69688221     3.66622884    -0.74221065     1.43676743    -0.34447781
Ti      1.32858823    -1.11299978     3.93968383     0.60582669    -0.08471737    -1.78934834
O       3.94052998     4.70657898     0.87386902    -0.67781581    -0.42373313    -0.84792108
O       3.82385000     0.86676498     0.81638699    -0.33724453     0.40130616     1.73540092
O       0.03174100     4.78621100     0.73063101     0.21464888     1.00141420    -0.13914995
O      -0.14574298     1.08595300     0.61243101     0.49833911    -1.65141812     1.61799068
O       5.67543320     4.83092722     4.00451381    -0.20918555     0.05801054    -0.85469183
O       5.61560321     0.96778222     3.91564680     0.40989442     1.00889611     0.05519929
O       1.91333121     4.71747421     4.12834282    -0.55786660    -0.27972250     0.48581938
O       1.88787820     0.85696821     4.09467683    -0.56140933     0.10154139    -0.42072365
O       3.73941521     2.91350420     3.21463680     0.13698997    -0.36055261    -0.08801841
O      -0.04533377     2.99691222     3.19007880     1.21206990    -0.65393488     0.05308019
O       5.53882498     6.60243702     1.82897898     0.24170924     0.30012421    -0.32723650
O       5.73787601     2.80295902     1.58220002    -1.04408142     0.24512778     0.21863255
O       2.05101302     6.58517801     2.07304198    -1.04662758     0.10559859    -0.10408832
O       1.89674700     2.89609200     1.60109700     0.18270343    -0.55535772     0.17577559
