# total energy = -19939.14796855 eV

CRYSTAL
PRIMVEC
        4.73342849     0.00000000     0.00000000
        0.99760870     4.93803588     0.00000000
        0.00000000     0.00000000     8.51489647
PRIMCOORD
24 1
Ti      2.30682208     2.92627549     3.15896597     2.51122104    -0.55465066     0.22748641
Ti      3.42421488     2.01176051     5.35593084    -2.51122104     0.55465066    -0.22748641
Ti      4.48870319     2.01176228     1.09844841    -4.03125265    -0.31425989     2.34570262
Ti      1.24233379     2.92627391     7.41644848     4.03125265     0.31425989    -2.34570262
Ti      1.80801784     0.45725773     1.09848256     2.51139948    -0.55452905    -0.22966002
Ti      3.92301913     4.48077841     7.41641434    -2.51139948     0.55452905     0.22966002
Ti      0.74352947     0.45725582     5.35589669     4.03096855     0.31404546     2.34683570
Ti      4.98750750     4.48078032     3.15900011    -4.03096855    -0.31404546    -2.34683570
O       1.84943490     1.73876640     4.34508662    -2.25098854    -1.43376978    -0.75193405
O       3.88160206     3.19926960     4.16981018     2.25098854     1.43376978     0.75193405
O       1.21986089     1.73878629     0.08766564     2.00659532    -1.53389809    -0.52538661
O       4.51117613     3.19924976     8.42723092    -2.00659532     1.53389809     0.52538661
O       3.38279781     0.73025170     0.08763800     2.25101271     1.43382043    -0.75177542
O       2.34823915     4.20778430     8.42725856    -2.25101271    -1.43382043     0.75177542
O       4.01237188     0.73023185     4.34511426    -2.00649556     1.53396674    -0.52549949
O       1.71866504     4.20780420     4.16978254     2.00649556    -1.53396674     0.52549949
O       0.77877852     3.00359329     2.30008605    -1.03798790    -1.71829356    -2.46723768
O       4.95225844     1.93444271     6.21481075     1.03798790     1.71829356     2.46723768
O       2.92949716     1.93439659     1.95738944     0.72969889    -2.55475909    -2.08162965
O       2.80153980     3.00363941     6.55750722    -0.72969889     2.55475909     2.08162965
O       0.27997427     0.53457539     1.95736223    -1.03772693    -1.71812104     2.46647560
O       5.45106270     4.40346066     6.55753442     1.03772693     1.71812104    -2.46647560
O       2.30273554     0.53462146     6.21483791    -0.72972486     2.55464005    -2.08176232
O       3.42830142     4.40341454     2.30005884     0.72972486    -2.55464005     2.08176232
