# total energy = -19074.01571411 eV

CRYSTAL
PRIMVEC
        5.17600016     0.00000000     0.00000000
        0.00000000     5.50899976     0.00000000
        0.00000000     0.00000000     9.26300011
PRIMCOORD
22 1
Ti      1.90280502     3.17685900     3.35298602    -1.51716354     1.45367193    -0.78642387
Ti      3.33095398     2.23150300     5.92878602    -0.21567398     0.79288403    -0.69406750
Ti      4.48808497     2.25993902     1.28358901     0.64493216    -0.41897119    -2.35021696
Ti      0.65229902     3.36844000     8.05138100     0.80847238    -1.07752557     1.05287768
Ti      1.87613402     0.57685199     1.28702300     0.67273659    -0.98226127    -1.46117441
Ti      3.33060399     5.00786298     8.04718198    -0.27862104     0.76398456     1.29670139
Ti      0.73178700     0.52652300     5.87180199    -0.21490934     0.05125856    -1.53490570
Ti      4.46807303     4.90390701     3.51557700    -0.49001542     0.77407255    -0.21253261
O       3.24320999     3.57558998     4.41951699     2.69603741    -0.04489379     2.70162930
O       0.85268002     1.88688298     9.23455302    -0.57944022     0.62226376     0.78145958
O       4.26780701     3.75892699     9.15372998     0.22926561    -0.28060542     0.16078657
O       3.42866598     0.85763101     0.26957998     0.85436556     0.11112466    -2.52218295
O       1.80505202     4.65404798     8.90099498    -2.10706970     0.80877345     1.87481621
O       4.28007201     0.90460898     4.64394397     0.98546307    -0.88764336     0.09883813
O       0.97417801     4.56995499     4.44381501    -1.29602571     2.02133675     1.92877289
O       0.09467902     3.33578299     2.64578602    -0.18147264    -0.84171264    -1.30358115
O       5.00866299     2.34007498     6.64094001     0.93080834    -1.24533048    -0.27581082
O       2.78405401     2.05457200     2.19516101    -0.47140808    -0.17528631     0.22709149
O       2.33210700     3.13096600     7.21286499     1.28750301     0.67905431    -1.52246208
O       0.12317299     0.63495899     1.94787198    -0.18427823    -0.70265422     1.96835144
O       2.55303501     0.62791702     6.58658599    -1.07104510    -1.06927978     0.20555952
O       2.80049099     4.83225101     2.36307398    -0.50246162    -0.35226055     0.36647387
