# total energy = -19518.34661973 eV

CRYSTAL
PRIMVEC
        5.93400000     0.00000000     0.00000000
        0.00000000     9.29699974     0.00000000
        0.00000000     0.00000000     4.64899994
PRIMCOORD
23 1
Ti      4.46947402     6.93739802     2.31332798     0.49044942     0.95267584    -0.12226500
Ti      4.44201798     2.31943400     2.33217997     0.20905262    -0.10132104     0.27837293
Ti      1.47435301     6.99919200     2.33642001    -0.34988305     0.83287987    -0.16815355
Ti      1.46437802     2.35582197     2.31878401    -0.02004099    -0.53585461    -0.04487245
Ti      2.96830400     4.64618700     0.03035101    -0.00327404    -0.85260306     0.86823332
Ti      2.99187599     0.01420502     4.63852599    -0.33708281    -0.56128900    -0.29682086
Ti      0.01391302     4.64879902     0.00212401    -0.13119573    -0.15261637    -0.09748264
Ti      5.93295699     9.28735300     0.04425398     0.29708542    -0.03451990    -0.56475819
O       4.39547398     5.58708399     0.87527103     0.12003380     0.02615559    -0.11567397
O       4.41922399     0.89591201     0.83986700     0.11783987     0.01858805     0.51716268
O       1.49896002     5.58192499     0.92641802     0.23327756    -0.29795677    -0.42666804
O       1.47410298     0.92820801     0.95065899     0.16425730    -0.19962541    -0.40832270
O       4.46530400     8.34360798     3.64501698    -0.48655523     0.09238286     0.80137176
O       4.46669801     3.70750202     3.68426600    -0.32002096     1.11210460     0.48180203
O       1.46820498     8.35926802     3.71593001     0.36577890     0.07253856     0.24293720
O       1.45314698     3.72795599     3.80319298     0.29695224     0.07366933    -0.87420471
O       2.98991401     1.48115903     3.24285201    -0.70768304    -0.46060302     0.03051412
O       0.02616400     6.05000100     3.25144002    -0.26169418    -0.06864179    -0.32034955
O       5.87902500     1.33492502     3.25279101     0.57807831     0.97664187    -0.78973006
O       2.96037603     7.86358298     1.38464900     0.20521422    -0.35659003     0.48480893
O       3.00065499     3.26174099     1.35118500    -0.62026627    -0.34360955     0.50165867
O       0.04740100     7.87074900     1.41425901    -0.44748087    -0.03616875    -0.27342844
O       5.88379802     3.25665300     1.39169600     0.60715749    -0.15623751     0.29586826
