# total energy = -19961.09073591 eV

CRYSTAL
PRIMVEC
        5.93400000     0.00000000     0.00000000
        0.00000000     9.29699974     0.00000000
        0.00000000     0.00000000     4.64899994
PRIMCOORD
24 1
Ti      4.44540699     6.98492602     2.41093600     0.78343625    -0.65338492    -0.38123509
Ti      4.47791101     2.34413800     2.39000402     0.10727443    -0.43568645    -1.13124390
Ti      1.47649301     6.96467800     2.25809299    -0.91546193    -0.48850361     0.00684222
Ti      1.54235901     2.31134399     2.31087101     0.04603665     0.32737920    -0.15448325
Ti      2.97957701     4.61121399     4.59966200    -1.48432926     0.43943100     0.22976209
Ti      2.96554302     9.24813398     0.00090500     0.12697012     0.52186060     0.69506894
Ti      5.84910299     4.66164897     0.06605100     1.43942775     0.67196732     0.02248045
Ti      0.01101303     0.00360200     4.57484501    -0.14223708     0.33786494     0.95571077
O       4.49969899     5.62616701     0.91893699    -0.71069046    -0.53425667    -0.32038066
O       4.45944500     1.01181802     0.84339498    -0.14684707    -1.05033254    -0.14138887
O       1.47078699     5.54570101     0.92156297     0.46201841     0.25416855     0.07887145
O       1.53138102     0.96863102     0.81742401    -0.46407684    -0.52667319     0.18471686
O       4.45457700     8.40411500     3.74660901    -0.06763958     0.17383004     0.37343230
O       4.47686499     3.79930601     3.71017600    -0.56815745    -0.58762353    -0.02127434
O       1.42612401     8.29584798     3.74189700     0.49548930     0.81875036     0.72279856
O       1.49772201     3.73984798     3.78393601     0.30876724    -0.24613694    -0.59183860
O       3.02499402     6.09554702     3.34265298    -0.69613904     0.00059932    -0.65506796
O       2.95774300     1.42705801     3.19996700    -0.14299787    -0.31671349     0.12392259
O       5.91627002     5.99149601     3.14387501     0.21971370     0.39586339     0.53830050
O       0.02870099     1.37330699     3.20830298    -0.22760802     0.39940483    -0.40541864
O       2.96477799     7.90731202     1.43473499    -0.17341480     0.05098242    -0.16283677
O       2.95100202     3.13753801     1.37314802     0.23202415     0.94275215     0.21089456
O       5.87437803     7.92584698     1.53813602     0.89112103     0.38291145    -0.94608404
O       5.82431802     3.30305200     1.39482101     0.62732035    -0.87845320     0.76845083
