# total energy = -39036.06219194 eV

CRYSTAL
PRIMVEC
        7.60600008     0.00000000     0.00000000
        0.00000000     7.60600008     0.00000000
       -3.79573973    -3.79573973     9.71340985
PRIMCOORD
46 1
Ti      1.93332247     4.65911543     6.15376361     0.56401128     1.56467883     0.51507572
Ti      3.60862498     6.79368702     1.29974500     2.55437214     1.06502589    -0.40611618
Ti      2.11595646     0.85666447     6.11324662    -0.17818343    -1.44453088    -1.73579481
Ti      3.79479600     2.86312002     1.26286399     0.87703344    -1.16629576    -0.75594523
Ti     -1.89373255     4.73968547     5.96551664    -0.55986178    -1.02415407     0.32570721
Ti     -0.02209299     6.75417399     1.11849999    -0.62614458    -0.53191388     1.95704269
Ti     -1.74386754     0.95026343     6.01053565     0.22959600     0.15267679    -1.70347860
Ti     -0.03263801     2.99373398     1.16928302    -0.87613150    -0.81353668     0.34855764
Ti      3.94119944     1.04479846     8.49746965    -0.65578504    -0.92384219    -0.59157763
Ti      5.63034598     2.62563400     3.61092299     0.48274202     0.56755144    -0.26770490
Ti      3.86624244    -2.76267853     8.52827861    -0.16624296     0.01329081    -0.45767607
Ti      5.54801198    -1.10742500     3.63427600     0.04189897     0.12563777    -1.37961513
Ti      0.07341445     1.08695642     8.28961364     0.81712131     0.37242546     0.65839292
Ti      1.91622702     2.86909702     3.36006498    -0.95901001    -2.07023941     2.63333975
Ti     -0.00070957    -2.76321855     8.56947961     0.08554475    -0.53368202     0.56487132
Ti      1.72206999    -0.99853599     3.86755702     0.23508479     0.13475491     0.95002966
O       2.05140144    -1.05956854     5.96339061    -0.73287806     0.41584575    -2.12542816
O       3.83744599     1.01598402     0.97424701    -0.63772227     0.51301292    -1.03701551
O      -1.83415354     2.76943443     5.47353361     0.46031994     1.03849595     0.90965972
O      -0.04808999     4.80536097     0.76209001    -0.12655206     0.17150704    -0.67352849
O      -1.95064757    -1.03761954     5.72634863     0.80104831     0.27434401    -0.46773012
O      -0.05894098     1.00784099     0.83922299     0.09361647    -0.09540467    -0.04768113
O       3.80057546     2.92870847     8.94139062     0.00981776    -1.18545512    -0.25411276
O       5.22116798     4.67516601     4.01556298     1.29419174     0.56424474     0.92368509
O       3.91343447    -0.91653553     8.85370061     0.03854419     0.91323818     0.08978990
O       5.62406099     0.83619901     3.97072499     0.32680687    -0.71273449     0.16825228
O       0.18654943     2.91260846     9.06540961    -0.47561287    -1.59121674    -0.66665876
O       1.88276598     4.50890900     4.09926702    -0.23061955     1.10383876     0.97791457
O       0.03732943    -0.80695853     9.05781565    -0.08378071     0.51879302    -0.88358924
O       1.75003298     1.06604498     4.16738102     0.03329323    -0.25527927    -0.00424644
O       1.91305445     0.73122443     7.94873861     1.32409034     1.08827047     1.77509491
O       3.78561398     2.58752800     3.22938402    -0.94879553     0.30895595     0.19165139
O       1.96818747    -2.88010254     8.11679763     0.06991655     0.09509486     0.10739528
O       3.45296898    -0.85469402     3.39005102     2.23626691    -0.26948514    -0.39625060
O      -1.81881354     0.94470744     7.83879563    -0.03128211     0.13233267     2.22181628
O       0.00243300     2.71144501     3.01626101    -0.84061658     0.34869828     0.89845691
O      -1.87311554    -2.97975455     8.28026964     0.97561137     0.62748259    -0.70992658
O      -0.15759100    -1.16960899     3.26664000     0.43268571     0.33970919    -0.20302749
O       3.91740647     4.57927047     6.50542761    -0.61649652    -0.26212792     0.28588364
O       5.50310600     6.60668801     1.64661799     0.99708600    -0.62685087     1.00462782
O       3.95783043     1.10516944     6.32417165    -1.35225267     0.24512829     0.86031278
O       5.56891998     3.04784500     1.74481101     1.34579945     0.75881998    -1.89314690
O       0.08859845     4.60457546     6.61513764    -1.24137406     0.04637449    -0.83544891
O       1.95781999     6.35821801     1.55150399    -4.12464930    -0.07087094    -0.00686459
O       0.18618345     1.32823844     6.31600163    -0.85146612    -0.57975878     0.88967453
O       1.90753402     3.00276000     1.56116602    -0.01104212     0.65715004    -1.75466774
