# total energy = -4984.85714805 eV

CRYSTAL
PRIMVEC
        2.70738208     0.00000000     0.00000000
        0.63275049     4.19460551     0.00000000
       -0.00000397    -0.00005507     4.25411036
PRIMCOORD
6 1
Ti      1.67006405     2.09727515     2.12705513     0.00000000     0.00000000     0.00000000
Ti      0.00000000     0.00000000     0.00000000     0.00000000     0.00000000     0.00000000
O       1.47700389     0.81745605     0.82906342    -3.36168161     1.94581982     2.09358709
O       1.86312421     3.37709424     3.42504679     3.36168161    -1.94581982    -2.09358709
O       0.19305843     1.27979678     2.95611946     3.36092544    -1.94466977     2.09231388
O       0.43968769     2.91475360     1.29799076    -3.36092544     1.94466977    -2.09231388
