# total energy = -19938.82534113 eV

CRYSTAL
PRIMVEC
        5.95955226     0.00000000     0.00000000
        0.63272739     6.31112775     0.00000000
        0.00000000     0.00000000    10.67967682
PRIMCOORD
24 1
Ti      2.53500478     3.73996850     3.96208402    -0.00425492    -1.30083007     0.74303135
Ti      4.05727505     2.57115931     6.71759316     0.00425492     1.30083007    -0.74303135
Ti      5.39750296     2.57116145     1.37771191     0.01207365     0.23764253    -0.40934112
Ti      1.19477688     3.73996666     9.30196546    -0.01207365    -0.23764253     0.40934112
Ti      2.21864121     0.58440468     1.37775475    -0.00425492    -1.30083007    -0.74303135
Ti      4.37363863     5.72672337     9.30192262     0.00425492     1.30083007     0.74303135
Ti      0.87841323     0.58440235     6.71755038    -0.01207365    -0.23764253    -0.40934112
Ti      5.71386655     5.72672564     3.96212687     0.01207365     0.23764253     0.40934112
O       2.10903006     2.22225539     5.44975747     1.49708245     1.54868914    -0.27282474
O       4.48324978     4.08887248     5.22991971    -1.49708245    -1.54868914     0.27282474
O       1.31637172     2.22228091     0.10995326    -1.05079637     0.75566035     0.38626057
O       5.27590818     4.08884702    10.56972368     1.05079637    -0.75566035    -0.38626057
O       4.16688619     0.93330842     0.10991864    -1.49708245    -1.54868914    -0.27282474
O       2.42539364     5.37781945    10.56975831     1.49708245     1.54868914     0.27282474
O       4.95954460     0.93328295     5.44979216     1.05079637    -0.75566035     0.38626057
O       1.63273517     5.37784492     5.22988509    -1.05079637     0.75566035    -0.38626057
O       0.60138496     3.83878580     2.88484722     0.39286368     0.40158975     0.77050771
O       5.99089481     2.47234207     7.79482997    -0.39286368    -0.40158975    -0.77050771
O       3.44417321     2.47228329     2.45502534     0.57019016     0.83421504     0.09914435
O       3.14810662     3.83884451     8.22465173    -0.57019016    -0.83421504    -0.09914435
O       0.28502138     0.68322174     2.45499120     0.39286368     0.40158975    -0.77050771
O       6.30725839     5.62790607     8.22468581    -0.39286368    -0.40158975     0.77050771
O       2.83174304     0.68328051     7.79486405    -0.57019016    -0.83421504     0.09914435
O       3.76053680     5.62784736     2.88481314     0.57019016     0.83421504    -0.09914435
