# total energy = -19960.53484355 eV

CRYSTAL
PRIMVEC
        5.93400000     0.00000000     0.00000000
        0.00000000     9.29699974     0.00000000
        0.00000000     0.00000000     4.64899994
PRIMCOORD
24 1
Ti      4.50129800     6.97359797     2.19489901    -0.81004126     0.95013610     0.26554698
Ti      4.40858699     2.34567802     2.33440802     0.58746927     0.57107411    -0.00899629
Ti      1.47095099     6.87251798     2.38389202     0.51567684     1.22995347     0.23301480
Ti      1.48271798     2.27706500     2.41273001    -0.60184328     0.47720978    -0.41376110
Ti      2.96091002     4.71283999     0.00136099     1.10858630    -0.08470451    -0.27833950
Ti      2.91377398     0.06411602     0.06175102     0.91695883    -2.13757997    -0.39453027
Ti      0.06163200     4.59165502     4.60403702    -1.18385949    -0.27327623     0.17340400
Ti      5.90473401     0.02836898     0.01786598    -0.86299032    -1.31885763    -0.86007932
O       4.44738601     5.53245401     0.82141798    -0.05356073     0.51161989     0.89371373
O       4.47842400     0.91478199     1.05398201    -0.02475639    -0.44373837    -0.75472164
O       1.44525700     5.61051199     0.79532002     0.37361434    -0.04847328     0.46361327
O       1.48183098     0.75955102     0.91643800    -0.36619567     1.63981369     1.37771123
O       4.50240700     8.42318401     3.68947501     0.29993498     0.26642192     0.39716694
O       4.41873302     3.90190999     3.65835600    -0.43156060    -1.57477839    -0.07246965
O       1.48881299     8.35778802     3.65500298    -0.24721115     0.42441370     0.59792543
O       1.50357598     3.78230598     3.70155301     0.50352786    -0.45746858    -0.12539352
O       3.02720698     6.16388100     3.20337501    -0.52998169    -0.83252454     0.17751391
O       2.91760501     1.44313103     3.41680299     0.58495601     1.06666959    -1.44043280
O       5.85666498     5.86081997     3.15451502     0.87288445     2.03097042    -1.04167280
O       5.90432099     1.54865601     3.31593699     0.29938733    -0.63184164     0.40792727
O       2.95837801     7.86938599     1.33139202     0.41470855    -0.69469845     0.56226962
O       2.95823101     3.09965701     1.36184501    -0.15170286     0.64012805     0.18513698
O       0.06388900     7.93263501     1.42732799    -0.50305555    -0.98712195     0.14427057
O       0.10012102     3.25274201     1.47150101    -0.71094577    -0.32334694    -0.48881806
