# total energy = -4986.16834713 eV

CRYSTAL
PRIMVEC
        3.72186655     0.00000000     0.00000000
        0.00000000     3.14009603     0.00000000
        0.00000000    -0.00007093     4.92950682
PRIMCOORD
6 1
Ti      1.86093317     1.57001250     2.46475356     0.00000000     0.00000000     0.00000000
Ti      0.00000000     0.00000000     0.00000000     0.00000000     0.00000000     0.00000000
O       1.86093317     0.61194464     0.96068832     0.00000000    -1.52012366    -0.66388145
O       1.86093317     2.52808041     3.96881875     0.00000000     1.52012366     0.66388145
O       0.00000000     0.95803960     3.42544283     0.00000000     1.51990974    -0.66333638
O       0.00000000     2.18198540     1.50406430     0.00000000    -1.51990974     0.66333638
