# total energy = -4982.85015139 eV

CRYSTAL
PRIMVEC
        2.76000333     0.00000000     0.00000000
        1.26880498     4.13419079     0.00000000
       -0.00000845    -0.00005668     4.37510629
PRIMCOORD
6 1
Ti      2.01439998     2.06706710     2.18755314     0.00000000     0.00000000     0.00000000
Ti      0.00000000     0.00000000     0.00000000     0.00000000     0.00000000     0.00000000
O       1.62727143     0.80568193     0.85264376    -6.33655191     2.83158859     3.42308626
O       2.40152859     3.32845226     3.52246248     6.33655191    -2.83158859    -3.42308626
O       0.38712509     1.26136222     3.04019788     6.33772202    -2.83403602     3.42601115
O       0.88167162     2.87277177     1.33490841    -6.33772202     2.83403602    -3.42601115
