# total energy = -19958.08912055 eV

CRYSTAL
PRIMVEC
        7.60600008     0.00000000     0.00000000
        0.00000000     7.60600008     0.00000000
       -1.89786986    -1.89786986     4.85670466
PRIMCOORD
24 1
Ti      3.56912799     6.52410799     1.13236798     5.34214551     1.62566259    -0.04829408
Ti      3.70637598     2.79070899     1.14133097     1.77780665    -3.52582269     2.67555085
Ti      0.05890500     6.81344602     1.17282999    -3.68644497     1.53795941     0.81065344
Ti      0.01311899     3.03893599     1.28040902    -1.83257297    -2.39862622    -0.66802838
Ti      5.68572724     2.94151525     3.63101082    -0.84008024    -1.24495381    -0.14125903
Ti      5.79577520    -0.82317580     3.64898380     0.25986843     0.20475759    -0.84922772
Ti      1.82679723     2.56167420     3.70847882     0.48934976     1.41997375    -2.28705830
Ti      2.09099824    -1.02406879     3.56419680    -0.68794493    -0.71279414     2.91432440
O       3.82391800     4.54335299     0.70714898    -0.20958201     2.20457317     1.18741250
O       3.86271002     0.91303401     0.75308400    -0.51683306    -0.34988819    -0.92164235
O      -0.12077502     4.81973898     0.90247899     0.68370338     0.04856996    -0.12773168
O      -0.24672402     1.08425598     0.88703802     2.29793227    -1.73096268    -0.94992784
O       5.68397021     4.78504120     4.09174884     0.65399890     0.60385131    -0.58924898
O       5.40855922     0.89640425     4.17093079     1.48578707     2.33924066     0.70401356
O       1.77904221     4.64370823     4.18407381     0.45266962     0.29870779    -2.60980952
O       2.16239520     0.78573021     3.96880281    -0.44729524     1.23854225     0.40283596
O       3.95071421     2.75818523     3.07100482    -2.98462276     0.60989572     1.14252976
O       3.96103322    -0.77322179     3.04287280    -2.63081107    -1.93330369     0.63143077
O      -0.03505275     2.61246622     3.33709784     1.19815329     0.38110448     0.26215852
O       0.10314522    -0.68998078     3.12857581     0.47329630    -0.87235583     1.54366597
O       5.80374302     6.89790801     1.69354400     0.18150581    -1.44542254    -0.49658948
O       5.71284101     2.65580901     1.74929197     0.92689512     1.63233410    -0.82164877
O       1.96012699     6.81584399     1.66850698    -1.98303630    -0.49778221    -0.85865981
O       1.90157702     2.73460800     1.75290901    -0.40388806     0.56673922    -0.90544980
