# total energy = -19516.60951495 eV

CRYSTAL
PRIMVEC
        5.17600016     0.00000000     0.00000000
        0.00000000     5.50899976     0.00000000
        0.00000000     0.00000000     9.26300011
PRIMCOORD
23 1
Ti      1.78183997     3.28665402     3.48114502     0.56116893    -0.71588332     2.59923354
Ti      3.51913000     2.14050600     5.90871798    -0.87536762     1.16649040    -3.41697757
Ti      4.30549797     2.07097401     1.38736400    -0.52947467     2.92264732    -0.62455359
Ti      0.81612801     3.29510403     7.87727698    -0.35389320     1.82375845     0.99117529
Ti      1.89911602     0.34424001     1.27410700    -0.37784355     0.19860751    -0.39887364
Ti      3.34823702     5.08550201     7.98143499    -0.65800416    -1.20493329     0.75897142
Ti      0.82524102     0.55986800     5.95160298     0.56951396    -3.05248680    -5.16827485
Ti      4.41953800     4.93426098     3.28765998     0.57585250    -1.21468189     3.52789346
O       1.77754999     1.83903297     4.66967098    -0.04380287     0.23387123     0.58846711
O       3.51741700     3.65557200     4.44433800     1.46375477    -0.33820021     0.23115126
O       4.60022298     3.34243898     9.20099101     0.10010028    -1.01986033     0.14620764
O       3.37200898     0.88037700     0.26235899     0.77604073    -1.09564285    -3.02246067
O       1.73057201     4.66100100     9.04187202     0.49448528    -0.07814100     0.49419038
O       4.40730099     0.88503699     4.77545399     0.17822508    -0.91431265    -1.09258889
O       1.15987202     4.59775400     4.62782201    -1.78894262     0.29667559    -0.35770949
O       0.19804998     3.32924400     2.44809101    -0.73728030     1.20355235     0.17117691
O       0.09083798     1.84891298     6.86201000    -1.82841704     2.88403037     2.52026207
O       2.60009601     2.06451498     2.09870999     0.17485025     0.49150100     0.03216785
O       2.60702300     3.31545100     7.06340798    -0.17663151     0.71832921     1.14038572
O       0.18617900     0.73253398     2.08950802     0.31975793    -1.05712900    -0.28992001
O       5.08239701     4.76360503     7.19377497    -0.16125374     0.16612187    -0.72434199
O       2.53482798     0.67109301     6.63058898     1.43562689    -0.87273378     2.07995458
O       2.68250198     4.86221303     2.50834202     0.88153493    -0.54158046    -0.18553602
