# total energy = -19519.36464608 eV

CRYSTAL
PRIMVEC
        7.60600008     0.00000000     0.00000000
        0.00000000     7.60600008     0.00000000
       -1.89786986    -1.89786986     4.85670466
PRIMCOORD
23 1
Ti      3.80086598     6.62712002     1.22602198     0.93629379    -0.48527456    -0.57036911
Ti      3.85373401     2.80811802     1.25434900    -0.05771075     0.51679733     0.41778514
Ti      0.05620302     6.78232098     1.23706300    -1.09734287    -1.24335150     0.22648470
Ti     -0.00781198     2.86571500     1.09290501    -0.35386312     0.88638480    -0.26730433
Ti      5.57768623     2.91136522     3.69342183    -0.38283046    -0.50695411     0.59079062
Ti      5.69045723    -1.01103478     3.61217783    -0.04110193     0.81127282    -0.75727321
Ti      2.01730422     2.77118420     3.62000282    -0.92197865     0.49651877     0.89661548
Ti      1.91265920    -0.98224579     3.64321883    -0.12498626    -0.39364812     0.15901045
O       4.03369301     4.71612100     0.86234100    -0.95766121    -0.33631302    -0.47597102
O       3.87534402     0.95286402     0.77401698    -0.04836093    -0.21717757    -0.00084538
O      -0.10103602     4.83701800     0.79991798     0.76623428    -0.17864597     0.14473336
O      -0.13333499     0.97711500     0.73042701     0.51941522    -0.46640137     0.34417828
O       5.52316123     4.76367223     4.00692680     0.99090404     0.27690149     0.22869123
O       5.56498724     0.97874825     4.07349884     0.56537088    -0.00345119    -0.60941364
O       1.80918225     4.66777224     4.00505283    -0.29945830     0.30680394     0.35190651
O       1.87478525     0.91764923     4.00807279    -0.15794164     0.38886818     0.46764527
O       3.76276722     2.77801424     3.26325682     0.98750118     0.12803276    -1.01509222
O       3.78518524    -1.06938176     3.15734082    -0.24489227     0.34475189     0.57890003
O       0.02272520    -0.87676775     3.20082782    -0.30446064    -0.27500478     0.28452507
O       5.70995800     6.71239301     1.68086999     0.03824260     0.15887392    -0.30916241
O       5.82757399     2.85473103     1.77754401    -0.06343891    -0.11501089    -0.47984619
O       1.92552001     6.74020101     1.62587202    -0.41026877    -0.10692888    -0.46318698
O       1.77255201     2.83542701     1.63092799     0.66233442     0.01295631     0.25719860
