# total energy = -19915.58642694 eV

CRYSTAL
PRIMVEC
        6.44582632     0.00000000     0.00000000
        0.34283650     6.85173661     0.00000000
        0.00000000     0.00000000    11.54021916
PRIMCOORD
24 1
Ti      2.53946652     4.06033260     4.28133900    -0.01745523    -1.14135348     0.68074224
Ti      4.24919603     2.79140375     7.25888029     0.01745523     1.14135348    -0.68074224
Ti      5.69878071     2.79140609     1.48872453     0.10794369     0.65826693    -0.58624722
Ti      1.08988191     4.06033052    10.05149489    -0.10794369    -0.65826693     0.58624722
Ti      2.36804841     0.63446456     1.48877078    -0.01745523    -1.14135348    -0.68074224
Ti      4.42061415     6.21727200    10.05144864     0.01745523     1.14135348     0.68074224
Ti      0.91846379     0.63446202     7.25883398    -0.10794369    -0.65826693    -0.58624722
Ti      5.87019883     6.21727454     4.28138531     0.10794369     0.65826693     0.58624722
O       2.16086319     2.41261284     5.88888550     1.51763148     1.48916731    -0.14258495
O       4.62779936     4.43912352     5.65133378    -1.51763148    -1.48916731     0.14258495
O       1.30352602     2.41264049     0.11881302    -1.30428178     1.11680432     0.16590538
O       5.48513660     4.43909594    11.42140594     1.30428178    -1.11680432    -0.16590538
O       4.45638125     1.01325528     0.11877560    -1.51763148    -1.48916731    -0.14258495
O       2.33228130     5.83848108    11.42144336     1.51763148     1.48916731     0.14258495
O       5.31371848     1.01322769     5.88892299     1.30428178    -1.11680432     0.16590538
O       1.47494401     5.83850880     5.65129630    -1.30428178     1.11680432    -0.16590538
O       0.44272436     4.16761446     3.11730115     0.48720058     0.06554696     0.59733099
O       6.34593825     2.68412189     8.42291820    -0.48720058    -0.06554696    -0.59733099
O       3.59141832     2.68405805     2.65284519     0.51893777     0.61942500    -0.07687396
O       3.19724429     4.16767830     8.88737390    -0.51893777    -0.61942500     0.07687396
O       0.27130625     0.74174622     2.65280836     0.48720058     0.06554696    -0.59733099
O       6.51735637     6.10999014     8.88741073    -0.48720058    -0.06554696     0.59733099
O       3.02582617     0.74181006     8.42295497    -0.51893777    -0.61942500    -0.07687396
O       3.76283644     6.10992630     3.11726426     0.51893777     0.61942500     0.07687396
