# total energy = -19069.71004633 eV

CRYSTAL
PRIMVEC
        5.93400000     0.00000000     0.00000000
        0.00000000     9.29699974     0.00000000
        0.00000000     0.00000000     4.64899994
PRIMCOORD
22 1
Ti      4.40311800     6.98532200     2.52012400    -1.06215602    -1.65506420    -0.43881908
Ti      4.45238800     2.47667098     2.04082001    -0.73896978    -0.44513371     2.04950139
Ti      1.38368299     7.32053901     2.60945901     0.14412453    -2.16101275     0.39416209
Ti      1.52598801     2.31182300     2.13023800     0.48862882     0.51668497     2.02608841
Ti      3.17689800     4.43576998     4.63975400     0.02576426     3.43364347     0.46039142
Ti      3.01710700     0.18144101     0.18920198    -0.68108317    -0.75946327     0.06926734
Ti      0.10658498     4.18007000     3.95529000     3.47496882     1.19767763     4.40606410
Ti      0.02181703     0.08041700     0.16831800    -0.92862033    -0.68200876     1.09248451
O       4.27562798     5.56514002     1.09475300    -1.36967318    -1.41136390     0.08704319
O       4.33919900     0.69006798     1.36673101     1.52292256     0.13667218    -1.10157876
O       1.38463800     0.65508302     1.44151698    -0.70158772    -0.84809232    -1.00456894
O       4.39365499     8.49522398     4.02946298    -0.20577755     0.43359768    -1.42799817
O       4.45386102     4.12844098     3.42787200    -4.66780584    -2.35909833    -3.10362889
O       1.37029401     8.27141201     4.09393900     0.35065129     2.64068925     0.32422986
O       1.75689001     3.94536200     3.38195101     0.41712179    -0.69339618    -0.92613381
O       2.74303399     6.20534998     3.49533501     0.61833383    -0.06127044    -0.45743799
O       3.09706299     1.86711699     3.08404200    -0.76203721    -2.43617386     3.71049996
O       5.92114798     6.05759898     3.57847400    -0.06035101     0.72011690    -1.80580006
O       2.74747399     7.87317998     1.59344398     1.62546128     0.26289771    -0.58166320
O       2.96877100     2.69899898     0.95067698    -0.51497184     2.93915793    -2.63460859
O       5.68923198     7.81244700     1.43154998     1.08189284    -0.52608827     1.78291646
O       5.91493999     2.89735498     1.08626601     1.94316336     1.75702853    -2.92041098
