# total energy = -19927.39608714 eV

CRYSTAL
PRIMVEC
        6.04916099     0.00000000     0.00000000
        0.00002283     3.86288179     0.00000000
        0.00000000     0.00000000     9.23875654
PRIMCOORD
24 1
Ti      2.19254326     2.28914016     3.42751280    -0.61757561     2.81177154    -3.79650648
Ti      3.85664015     1.57374159     5.81124384     0.61757561    -2.81177154     3.79650648
Ti      5.21701968     1.57374289     1.19182861    -0.61401540    -2.81197595     3.79913106
Ti      0.83216379     2.28913901     8.04692808     0.61401540     2.81197595    -3.79913106
Ti      2.19253205     0.35769931     1.19186567    -0.61757561     2.81177154     3.79650648
Ti      3.85665137     3.50518253     8.04689107     0.61757561    -2.81177154    -3.79650648
Ti      0.83215252     0.35769791     5.81120678     0.61401540     2.81197595     3.79913106
Ti      5.21703090     3.50518393     3.42754981    -0.61401540    -2.81197595    -3.79913106
O       1.91460557     1.36018631     4.71446677     2.86649312    -2.71468254     4.11728977
O       4.13457789     2.50269539     4.52428988    -2.86649312     2.71468254    -4.11728977
O       1.11002615     1.36020191     0.09511818    -2.86515949    -2.71558860     4.11772608
O       4.93915736     2.50267984     9.14363816     2.86515949     2.71558860    -4.11772608
O       4.13456668     0.57125444     0.09508820    -2.86649312     2.71468254     4.11728977
O       1.91461679     3.29162725     9.14366815     2.86649312    -2.71468254    -4.11728977
O       4.93914610     0.57123889     4.71449670     2.86515949     2.71558860     4.11772608
O       1.11003727     3.29164285     4.52425989    -2.86515949    -2.71558860    -4.11772608
O       0.21979381     2.34962368     2.49561863     2.63539457    -0.46321912     2.36220936
O       5.82938966     1.51325801     6.74313796    -2.63539457     0.46321912    -2.36220936
O       3.24438127     1.51322210     2.12378903     2.63668038     0.46327671    -2.36252458
O       2.80480215     2.34965965     7.11496741    -2.63668038    -0.46327671     2.36252458
O       0.21978255     0.41818274     2.12375954     2.63539457    -0.46321912    -2.36220936
O       5.82940087     3.44469895     7.11499690    -2.63539457     0.46321912     2.36220936
O       2.80479093     0.41821870     6.74316740    -2.63668038    -0.46327671    -2.36252458
O       3.24439248     3.44466299     2.49558914     2.63668038     0.46327671     2.36252458
