# total energy = -4985.00195826 eV

CRYSTAL
PRIMVEC
        4.24691760     0.00000000     0.00000000
        1.63342229     3.92023478     0.00000000
       -2.94020937    -1.96014367     5.53620957
PRIMCOORD
6 1
Ti      1.22495192     2.94032701     1.38405210     0.00004474    -0.00004474     0.00000000
Ti      1.71517873    -0.98023587     4.15215671    -0.00004474     0.00004474    -0.00000000
O       0.40839973     0.98005356     0.90180316    -0.00058647    -0.00104952    -1.71330279
O       2.53173073     0.98003750     4.63440571     0.00058647     0.00104952     1.71330279
O      -0.40836304    -0.98002911     3.66990783    -0.00104952    -0.00058647    -1.71330279
O       3.34849343     2.94012012     1.86630110     0.00104952     0.00058647     1.71330279
