# total energy = -19074.02142633 eV

CRYSTAL
PRIMVEC
        7.60600008     0.00000000     0.00000000
        0.00000000     7.60600008     0.00000000
       -1.89786986    -1.89786986     4.85670466
PRIMCOORD
22 1
Ti      3.83955502     6.62084699     1.24123101     2.10042108    -1.81364887    -1.66838895
Ti      3.82099498     2.68128599     1.20603999     1.08171955     2.64977630     0.81622246
Ti      0.43964602     6.75770699     1.00488802    -2.01975861     0.15458686    -0.14611662
Ti      0.01799002     2.88876702     1.10439398    -0.97537791    -0.01684587     0.34564792
Ti      5.72960222     2.96713023     3.64139979    -1.51880391    -0.16714876    -1.10847677
Ti      6.00009424    -0.84926175     3.62762382    -1.01909337    -0.84107706    -2.11937475
Ti      1.85689922     2.77429222     3.64205279     1.11469088    -0.61391127     0.54099167
Ti      1.11098721    -1.08186278     4.02299781     3.72081677     0.14871292    -2.25650484
O       3.92534101     4.67297300     0.74358701    -0.71147439     1.62834914     0.06900304
O       4.13496600     0.88780702     0.78224098    -1.56317679    -0.92142381     0.46902004
O       0.19784302     4.81911403     0.78103302     0.32666932     0.16996464    -0.57316467
O      -0.18920701     1.01295601     0.58006002     0.74188515     0.20547364     2.46218083
O       5.31989721     4.84189923     3.96439482     1.69424860    -0.45101126    -0.15059574
O       5.36270321     0.94896224     3.90872384     1.57914155     0.73650871     0.83458502
O       1.84050022     4.74631321     3.96263181    -1.11253758     1.08225588     1.56899340
O       1.92540021     0.88114225     4.07607582    -1.60571674    -1.11895402    -0.12951063
O       3.70797325     2.76249220     3.14321380     0.82193262     0.21304580     0.50557060
O      -0.01975577     2.81246220     3.15729981     0.10589966    -0.03914018     0.24997508
O       5.76980202     6.58903100     1.67975501    -1.25181994     0.20914261     1.40772938
O       5.73036799     3.03505601     1.70087099     0.09726461    -0.40007126    -0.61834026
O       2.05477701     6.68752401     1.96118799    -0.25958047     0.00598193     0.64433360
O       1.94831199     2.88564699     1.60799101    -1.34735009    -0.82056582    -1.14377958
