# total energy = -19948.60683528 eV

CRYSTAL
PRIMVEC
        4.76169230     0.00000000     0.00000000
        0.00002610     5.06788057     0.00000000
        0.00000000     0.00000000     8.52238219
PRIMCOORD
24 1
Ti      1.72589990     3.00322134     3.16174307    -0.05882738     0.87429650    -1.01872930
Ti      3.03581850     2.06465928     5.36063936     0.05882738    -0.87429650     1.01872930
Ti      4.10666269     2.06466102     1.09941409    -0.05545769    -0.87405224     1.01769135
Ti      0.65505571     3.00321979     7.42296844     0.05545769     0.87405224    -1.01769135
Ti      1.72588695     0.46928115     1.09944827    -0.05882918     0.87096512     1.01718612
Ti      3.03583145     4.59859961     7.42293426     0.05882918    -0.87096512    -1.01718612
Ti      0.65504276     0.46927926     5.36060519     0.05532759     0.87068487     1.01921524
Ti      4.10667565     4.59860150     3.16177725    -0.05532759    -0.87068487    -1.01921524
O       1.50711487     1.78448695     4.34890649    -1.86991723    -1.64014125    -0.22862566
O       3.25460354     3.28339372     4.17347595     1.86991723     1.64014125     0.22862566
O       0.87377750     1.78450736     0.08774270     1.86932433    -1.64037574    -0.22775714
O       3.88794095     3.28337331     8.43463949    -1.86932433     1.64037574     0.22775714
O       3.25459058     0.74945338     0.08771505     1.86967066     1.64006695    -0.22844774
O       1.50712782     4.31842723     8.43466714    -1.86967066    -1.64006695     0.22844774
O       3.88792799     0.74943297     4.34893414    -1.86964855     1.64050841    -0.22802017
O       0.87379036     4.31844769     4.17344829     1.86964855    -1.64050841     0.22802017
O       0.17301915     3.08257226     2.30210810    -0.67229539     0.40581433    -0.45054409
O       4.58869925     1.98530836     6.22027434     0.67229539    -0.40581433     0.45054409
O       2.55386912     1.98526113     1.95911021    -0.67267823    -0.40624628     0.45115935
O       2.20784928     3.08261949     6.56327208     0.67267823     0.40624628    -0.45115935
O       0.17300620     0.54863192     1.95908300    -0.67250288     0.40581742     0.45085699
O       4.58871220     4.51924869     6.56329929     0.67250288    -0.40581742    -0.45085699
O       2.20783633     0.54867915     6.22030150     0.67251548     0.40620694     0.45078191
O       2.55388207     4.51920146     2.30208088    -0.67251548    -0.40620694    -0.45078191
