# total energy = -19066.92505341 eV

CRYSTAL
PRIMVEC
        5.17600016     0.00000000     0.00000000
        0.00000000     5.50899976     0.00000000
        0.00000000     0.00000000     9.26300011
PRIMCOORD
22 1
Ti      1.49143300     3.54784898     3.27369500     0.47273734    -2.39751936     2.74911657
Ti      3.84030497     2.47549599     5.82227402    -0.48018506     0.36992326     2.55298143
Ti      4.04523500     2.35738802     1.31995798     2.98064603    -2.00400185    -0.48696172
Ti      1.41735898     2.09394898     7.87752098     0.03193748     0.09089624     3.19205918
Ti      1.73913997     0.51174901     1.37776901    -1.71645728     2.32843637    -3.24293645
Ti      3.41058098     5.43444498     7.88796102     3.20363841    -3.95295919     3.57668273
Ti      0.81388001     5.49966502     6.10007800    -2.21217875    -0.57944871    -0.38591604
Ti      3.99736902     5.25374101     3.56667001     0.73392887    -0.00915133     0.40984145
O       3.08989602     3.66275601     4.62065599    -0.02262083    -0.93750761    -0.11402487
O       1.06262702     2.16702598     0.41618701    -1.13780099     2.07939974    -0.23660997
O       4.80389801     3.99448500     6.54056599     2.01386178     1.32680285     0.52136644
O       3.62092999     0.52684998     0.35029999     0.12582701     1.16495699     0.61632014
O       1.53324298     0.17428098     8.52217900     0.24250603    -2.82474816     2.28963841
O       4.11438598     0.65457400     5.19160798     1.13782978     0.79490774    -1.89056654
O       1.10799498     5.12149400     4.29793598    -0.49234407     0.84156866     1.44046957
O       4.91601702     3.75929101     2.88522100    -0.93358462    -1.45142838    -2.33938953
O       5.04804002     1.34028098     7.50407298    -4.06419441    -1.55454457    -3.32716042
O       2.56180999     1.98527201     2.27235500    -0.06132778     0.21165072     2.13986722
O       3.00562100     2.95316202     7.79508199     1.15988574     3.06742928    -0.30604392
O       5.12025599     1.02376298     2.23220500    -0.45391609    -0.57329451     1.19532250
O       2.53858598     0.85816601     6.82600800    -2.67750874     3.12929262    -6.43020155
O       2.45266898     4.59043098     2.27732800     2.14932014     0.87933920    -1.92385462
