# total energy = -4990.11307274 eV

CRYSTAL
PRIMVEC
        3.16188053     0.00000000     0.00000000
        0.00000000     4.48236517     0.00000000
        0.00000000    -0.00006131     4.73010405
PRIMCOORD
6 1
Ti      1.58094026     2.24115177     2.36505203     0.00000000     0.00000000     0.00000000
Ti      0.00000000     0.00000000     0.00000000     0.00000000     0.00000000     0.00000000
O       1.58094026     0.87353494     0.92182760    -0.00000000    -0.00544431    -0.09627139
O       1.58094026     3.60876855     3.80827640    -0.00000000     0.00544431     0.09627139
O       0.00000000     1.36759199     3.28688059    -0.00000000     0.00566491    -0.09668071
O       0.00000000     3.11471155     1.44322341    -0.00000000    -0.00566491     0.09668071
