# total energy = -19517.68182341 eV

CRYSTAL
PRIMVEC
        5.17600016     0.00000000     0.00000000
        0.00000000     5.50899976     0.00000000
        0.00000000     0.00000000     9.26300011
PRIMCOORD
23 1
Ti      1.87370700     3.18663602     3.37672702    -0.50682890    -1.29883541     3.52852312
Ti      3.36699302     2.26526302     5.86025000    -0.48385583     0.50743439    -2.54705761
Ti      4.39496100     2.07254900     1.44542998     0.66964818    -0.62110573    -0.64743513
Ti      0.76690801     3.48432701     7.76597402     1.08955165    -0.27555191     0.05816815
Ti      2.06514999     0.22008598     1.38969799    -0.90863282     1.10375289    -1.87185738
Ti      3.17329901     5.24514299     7.90063698    -0.47401801     0.49347613     0.36807027
Ti      0.72028501     0.53100402     5.93761402     0.04540544     0.18276385    -3.32152353
Ti      4.53337202     4.95202398     3.34478398     0.34466602    -0.22624945     3.65240355
O       1.63144902     1.84982200     4.74851501     0.17867580     0.32048067    -0.04225584
O       3.52277000     3.51471698     4.47130799    -0.04598985     0.11258634    -0.02581697
O       0.16467298     2.75823598     0.02206801    -0.66727299    -0.34624416     0.19491952
O       3.49525198     0.83872102     0.17660502    -0.62903168     0.42097202     0.37389922
O       1.87816600     4.57582600     9.09555101    -0.39830645     0.30493938     0.73978841
O       4.26634097     0.67142301     4.86959902    -0.67838505     0.60171061    -0.61932884
O       0.85178900     4.60687500     4.50386599     1.01629112     0.21741771     0.28797523
O       0.18716401     3.36965700     2.52112001     0.02364799    -0.68481127    -0.49239395
O       5.02654003     2.12429999     6.72650998     0.18731856     0.65327642     0.57473690
O       2.78689400     1.74806502     2.46420700    -0.48816397     0.15009386    -1.32115928
O       2.57437900     3.68016102     6.95852298    -0.36817260    -0.86646697    -0.04179175
O       0.11953802     0.46788498     1.91600202     1.60197990     0.75419457    -0.06174455
O       4.93506401     4.95896700     7.22536098    -0.00484396    -0.58534296     0.76208014
O       2.31847100     1.04764199     6.94820101    -0.18575533    -0.48261655     0.82674213
O       2.84837000     4.51866798     2.39004598     0.68207278    -0.43587465    -0.37494180
