# total energy = -19961.52815012 eV

CRYSTAL
PRIMVEC
        7.60600008     0.00000000     0.00000000
        0.00000000     7.60600008     0.00000000
       -1.89786986    -1.89786986     4.85670466
PRIMCOORD
24 1
Ti      3.79218302     6.65240098     1.19334301    -0.39415540     0.56601289     0.56844130
Ti      3.80829002     2.92214202     1.18868202    -0.56823329    -0.60247191     0.85186284
Ti      0.01613202     6.66301998     1.21307302     0.42579284    -0.55621055    -0.09443023
Ti     -0.01366399     2.80369400     1.26599900     0.47093860     0.58972695    -1.24129127
Ti      5.78019522     2.78356822     3.67271782    -1.57651903    -0.36868502     0.30893539
Ti      5.74630824    -1.02048779     3.63216781    -1.14421821     0.43768317    -0.71253368
Ti      1.83768024     2.83948321     3.62140779     1.64972967     0.74195688    -0.09566898
Ti      1.86768925    -0.92096977     3.71714982     1.16805800    -0.80272622    -0.78989512
O       3.79043198     4.79669099     0.68659600     0.14357277    -0.54897007     0.15301026
O       3.65908299     1.00852400     0.85515800     0.63111813    -0.05809847    -0.27733472
O       0.03867201     4.71028502     0.83157601    -0.47640759     0.81463634    -0.77090546
O      -0.00628297     0.98602502     0.71185299     0.00987638    -0.92871546     1.00378784
O       5.85401322     4.71185922     4.06510783    -0.05573485    -0.21986720     0.27195674
O       5.68271722     0.87786722     3.94928284    -0.10338101     1.38915907     0.56890229
O       1.76051021     4.80555524     4.06133279     0.12061486    -0.75255600     0.08691412
O       1.89237822     0.91792224     4.02468483     0.31851738     1.28458815     0.20134291
O       3.68987422     2.85523422     3.15678582     0.87693137     0.06385671     0.03882624
O       3.85816322    -1.12631277     3.25016783    -0.68408339     0.25853275     0.06310775
O      -0.01813379     2.70120824     3.25836679     0.39955112    -0.04988096    -0.64461977
O       0.07405121    -0.87508375     3.16049583    -1.43191010    -0.16256423    -0.05194479
O       5.62903902     6.68840599     1.63312598     1.80967240    -0.03852208    -0.47471735
O       5.74159999     3.01143501     1.65399398    -0.89232662    -0.41634455     0.19387128
O       1.93541901     6.66836700     1.66761098    -0.59088163    -0.00488201    -0.22069638
O       1.86643600     3.04496501     1.47000101    -0.10652264    -0.63565870     1.06307879
