# total energy = -19067.43014944 eV

CRYSTAL
PRIMVEC
        5.17600016     0.00000000     0.00000000
        0.00000000     5.50899976     0.00000000
        0.00000000     0.00000000     9.26300011
PRIMCOORD
22 1
Ti      1.75807103     3.21902601     3.20911701     0.23825882     1.28857233    -0.67122452
Ti      3.56952498     2.68952501     6.06958998     0.73540880    -0.29749500    -1.21965235
Ti      4.34651900     2.18262999     1.35968501     1.71627139     0.09218617     0.60060504
Ti      1.14229598     2.10510002     8.05322498    -0.53080933    -0.39849003     1.09124215
Ti      2.16457001     0.47607098     1.53441299    -4.21621326    -0.11671681    -1.25822482
Ti      3.28250601     5.33062501     7.92005599     0.27655053    -1.48388703    -1.38283261
Ti      0.58158300     0.13078399     6.09207001    -0.76002275     0.49676508     1.28632262
Ti      4.43342700     5.18785500     3.51760300    -2.19587050    -0.51424911     0.23777134
O       3.16755802     3.90270799     4.33104702     0.71347496    -1.54188934     2.79062370
O       1.27576999     2.04559901     0.91194999    -2.81792574     2.31967841    -3.27692002
O       4.47911198     4.21219302     6.92880799     2.53219971    -0.39955909    -1.13001157
O       3.21640902     0.86716599     0.14803300     1.60761936     1.33072327     1.20988601
O       1.49145697     5.47625602     7.82557901    -1.90520255     0.62895737     1.96010693
O       4.43530298     1.10156198     5.19734198    -0.46496258     0.12467104    -1.57568444
O       0.82143899     4.99121199     4.30602498     2.31472930    -1.43250248     1.44920412
O       0.00531601     3.65921798     2.45877801     0.23163591    -1.76267725     0.06376158
O       4.43043402     1.30244798     7.64313197     2.56567574     1.74248945    -1.85439342
O       2.81046000     1.68235201     2.62374399     1.74048656     1.20803430     3.28689204
O       2.31860700     3.42909202     7.03902301    -1.90698664     3.80724804     3.89815354
O       5.03396697     0.56994602     2.06684002     0.84955656     0.75670988    -0.46509294
O       1.96347800     1.61050799     6.42927498    -0.46800574    -3.86913940    -4.20463866
O       2.78532700     4.49878002     2.23693400    -0.25586883    -1.97942904    -0.83589423
