# total energy = -19960.22858323 eV

CRYSTAL
PRIMVEC
        5.93400000     0.00000000     0.00000000
        0.00000000     9.29699974     0.00000000
        0.00000000     0.00000000     4.64899994
PRIMCOORD
24 1
Ti      4.47809802     7.04703502     2.28147998     0.86242108    -0.25979799     0.48144362
Ti      4.41765699     2.26564700     2.29302800     0.32817522     0.72302482     0.36996414
Ti      1.53628998     6.90715998     2.32096798    -0.99232689     0.04150559     0.85782446
Ti      1.45746601     2.24620301     2.26413201    -0.12812275     1.00964842     0.99352502
Ti      2.97101900     4.61003800     0.05035598     0.51633658     1.64487774    -0.02524079
Ti      2.91438602     0.06863000     0.11928502     1.22353651    -2.59673494    -1.56433251
Ti      5.90873697     4.59513700     4.60087699    -0.37273065     1.78217599    -0.08308369
Ti      0.01069102     0.04701200     0.00461300    -0.59462670    -3.25629565    -0.94520241
O       4.47669502     5.51230299     0.95335298     0.11388449    -0.14756415    -0.27363181
O       4.44804499     0.84722500     0.98074801    -0.57566378     0.03561751    -0.34555691
O       1.49259502     5.57470199     0.95817299     0.12602961    -0.80964866    -0.24070831
O       1.50241100     0.90597500     0.92650300    -0.31095165     0.81839838     0.42092574
O       4.46393899     8.34961498     3.63916698    -0.29477066     2.25335524     1.89078200
O       4.44455999     3.82645302     3.68915200     0.19662519    -0.79026973    -0.37033567
O       1.36803601     8.45490999     3.66064702     1.12445979     0.81227941     1.55037218
O       1.55572201     3.83372301     3.76816102    -0.77846528    -1.12220750    -1.22039745
O       3.07464698     6.16255002     3.19775901    -1.01092214    -0.81789496     0.69676459
O       2.97189097     1.44763501     3.19467402    -0.73355529    -0.15402919     0.51690480
O       5.87918301     6.23673199     3.39546403     0.80687006    -1.35181507    -0.81478392
O       0.04025700     1.37128098     3.30643101     0.13093348     2.00660509    -1.39571924
O       2.88962302     7.96394600     1.44265101     0.50771799     0.41554082    -1.01773248
O       3.04608200     3.22810802     1.39637800    -0.93714431    -0.62850049     0.26188572
O       0.09992200     7.89452699     1.43876399    -0.55240763     0.40588709    -0.86940163
O       5.82993402     3.07999998     1.25420797     1.34469748    -0.01415804     1.12573480
