# total energy = -19920.15562131 eV

CRYSTAL
PRIMVEC
        6.94585960     0.00000000     0.00000000
        0.00003230     6.04840529     0.00000000
        0.00000000     0.00000000    11.41557548
PRIMCOORD
24 1
Ti      2.51755916     3.58427925     4.23509723     0.36585500    -0.86252084     0.91207476
Ti      4.42833281     2.46412578     7.18047870    -0.36585500     0.86252084    -0.91207476
Ti      5.99036861     2.46412774     1.47264513     0.36594936     0.86262703    -0.91215652
Ti      0.95552335     3.58427749     9.94293094    -0.36594936    -0.86262703     0.91215652
Ti      2.51754327     0.56007673     1.47269090     0.36585500    -0.86252084    -0.91207476
Ti      4.42834870     5.48832849     9.94288516    -0.36585500     0.86252084     0.91207476
Ti      0.95550746     0.56007452     7.18043293    -0.36594936    -0.86262703    -0.91215652
Ti      5.99038450     5.48833064     4.23514300     0.36594936     0.86262703     0.91215652
O       2.19841981     2.12974623     5.82528096     0.96439621     1.39818673    -0.83444464
O       4.74747216     3.91865880     5.59029497    -0.96439621    -1.39818673     0.83444464
O       1.27457333     2.12977067     0.11752976    -0.96411545     1.39844744    -0.83565769
O       5.67131870     3.91863442    11.29804585     0.96411545    -1.39844744     0.83565769
O       4.74745626     0.89445609     0.11749271    -0.96439621    -1.39818673    -0.83444464
O       2.19843570     5.15394894    11.29808290     0.96439621     1.39818673     0.83444464
O       5.67130275     0.89443171     5.82531802     0.96411545    -1.39844744    -0.83565769
O       1.27458909     5.15397338     5.59025791    -0.96411545     1.39844744     0.83565769
O       0.25237867     3.67898299     3.08363184    -0.80878914     0.07070896     0.02271339
O       6.69351330     2.36942204     8.33194409     0.80878914    -0.07070896    -0.02271339
O       3.72531542     2.36936583     2.62419244    -0.80831091    -0.07048682    -0.02264937
O       3.22057655     3.67903920     8.79138330     0.80831091     0.07048682     0.02264937
O       0.25236271     0.65478028     2.62415596    -0.80878914     0.07070896    -0.02271339
O       6.69352925     5.39362475     8.79141978     0.80878914    -0.07070896     0.02271339
O       3.22056059     0.65483649     8.33198050     0.80831091     0.07048682    -0.02264937
O       3.72533137     5.39356854     3.08359537    -0.80831091    -0.07048682     0.02264937
