# total energy = -19946.20359199 eV

CRYSTAL
PRIMVEC
        5.73763800     0.00000000     0.00000000
        1.50318804     5.91867955     0.00000000
        0.00000000     0.00000000    10.35154745
PRIMCOORD
24 1
Ti      2.97040571     3.50740420     3.84035047     0.29444207    -2.05659070     0.92428365
Ti      4.27042049     2.41127575     6.51119756    -0.29444207     2.05659070    -0.92428365
Ti      5.56074299     2.41127779     1.33538222    -0.77735559    -0.52652690     0.14899368
Ti      1.68008324     3.50740238     9.01616593     0.77735559     0.52652690    -0.14899368
Ti      2.21881182     0.54806446     1.33542372     0.29444207    -2.05659070    -0.92428365
Ti      5.02201441     5.37061571     9.01612443    -0.29444207     2.05659070     0.92428365
Ti      0.92848923     0.54806219     6.51115606     0.77735559     0.52652690     0.14899368
Ti      6.31233700     5.37061792     3.84039197    -0.77735559    -0.52652690    -0.14899368
O       2.34529672     2.08406781     5.28231567     1.50232339     1.81694271    -0.67388510
O       4.89552942     3.83461213     5.06923236    -1.50232339    -1.81694271     0.67388510
O       1.58215806     2.08409170     0.10657501    -0.45806405    -0.09807554     0.89134112
O       5.65866821     3.83458835    10.24497273     0.45806405     0.09807554    -0.89134112
O       4.14393550     0.87527223     0.10654143    -1.50232339    -1.81694271    -0.67388510
O       3.09689070     5.04340771    10.24500631     1.50232339     1.81694271     0.67388510
O       4.90707429     0.87524839     5.28234926     0.45806405     0.09807554     0.89134112
O       2.33375186     5.04343162     5.06919877    -0.45806405    -0.09807554    -0.89134112
O       1.12278583     3.60007655     2.79621138     0.33965314     1.24755371     1.25719535
O       6.11804031     2.31860340     7.55533665    -0.33965314    -1.24755371    -1.25719535
O       3.66614198     2.31854820     2.37959558     0.89100713     1.16528352     0.35208468
O       3.57468422     3.60013180     7.97195227    -0.89100713    -1.16528352    -0.35208468
O       0.37119192     0.64073664     2.37956252     0.33965314     1.24755371    -1.25719535
O       6.86963429     5.27794335     7.97198534    -0.33965314    -1.24755371     1.25719535
O       2.82309030     0.64079183     7.55536966    -0.89100713    -1.16528352     0.35208468
O       4.41773590     5.27788811     2.79617831     0.89100713     1.16528352    -0.35208468
