# total energy = -19516.95762843 eV

CRYSTAL
PRIMVEC
        5.93400000     0.00000000     0.00000000
        0.00000000     9.29699974     0.00000000
        0.00000000     0.00000000     4.64899994
PRIMCOORD
23 1
Ti      4.54633998     7.06082200     2.17212201    -0.57464254     1.26030999    -0.43685167
Ti      4.46404599     2.20161798     2.38842702     1.47504192    -0.39059108     0.34651876
Ti      1.39509200     7.01751302     2.38345402     0.31452599    -0.22108899    -0.85478310
Ti      1.52568802     2.45344899     2.32730599    -1.55847373    -1.67009153    -0.16147999
Ti      2.90718498     4.43251300     0.09834902     0.19201571     1.09329569    -0.08705064
Ti      3.00879098     0.05954101     0.03221398    -1.30914502    -0.75303937    -0.28384218
Ti      5.85959398     4.71092802     0.04598402     1.32526893    -0.23997735    -0.09113227
Ti      0.05268801     9.27889299     4.57555300     0.00355275     1.17710649     0.15164166
O       4.47238302     5.56580599     0.79387298    -1.62221012     1.77160489     1.42134132
O       4.33999102     0.86610700     0.86660998     1.41045012     0.99237960     1.22815704
O       1.56008999     5.66674898     0.88685599     0.45133059    -0.83635934    -0.44437061
O       1.41567398     0.97785198     0.94455599     0.73249265    -0.58285979    -0.83317786
O       4.52155300     8.51907500     3.52098699    -0.86224959    -1.02211210     1.15232001
O       4.49757402     3.80965799     3.87513801    -1.36304385    -1.89860535    -2.26070474
O       1.38280900     8.36561498     3.71305499     1.21815828    -0.73706870     0.28859795
O       1.41988797     3.55110500     3.92984901     0.71627618     1.22855094    -0.99746678
O       2.86301598     1.43798001     3.32128602     1.01684314     0.47423681    -0.87789527
O       5.79207599     5.89031901     3.05701501     0.93996533     0.88572300     0.45606708
O       0.05966997     1.29579998     3.16769100    -0.73252736     1.39848601    -0.21945222
O       2.96933801     7.94552698     1.44309203     0.05612720    -1.20278025     0.21443291
O       3.08372798     3.16713600     1.33101800    -0.42559718    -0.42369199     1.82479667
O       0.13561998     7.97877699     1.42648501    -0.97921837    -0.77748132    -0.18008425
O       5.90860299     3.19216598     1.42971601    -0.42494078     0.47405349     0.64441819
