# total energy = -19961.01456944 eV

CRYSTAL
PRIMVEC
        5.93400000     0.00000000     0.00000000
        0.00000000     9.29699974     0.00000000
        0.00000000     0.00000000     4.64899994
PRIMCOORD
24 1
Ti      4.44630299     7.02173601     2.31557699     1.40737508     0.12237273    -0.53133383
Ti      4.47759001     2.40686498     2.37914001    -1.10370043    -0.94460823    -1.14799182
Ti      1.51346599     6.87131801     2.25476298    -1.30974203     0.65345460     0.09081345
Ti      1.49662000     2.32080298     2.42711702     1.08721837    -0.99468305    -1.39558657
Ti      2.95731600     4.64976302     4.62486502    -0.05274054     0.54172110     0.67567022
Ti      2.96780901     9.26001100     0.01816999    -0.72268646     0.67828555     0.69958895
Ti      5.91333299     4.60038401     4.62665702     0.05425235     1.12102428     0.43098081
Ti      5.91382501     0.06453301     4.55319902     0.64108373    -0.50638873     1.78545980
O       4.51202802     5.63447298     0.86313800    -0.39414049    -1.02147781    -0.38818041
O       4.48974802     0.80464100     0.95928098    -0.44788094     0.99866466     0.51081874
O       1.48585198     5.58921801     0.80352798     0.01065234    -0.38446517     0.32421494
O       1.44310801     0.85708500     1.02362798     0.19365428     0.37829041    -0.29636783
O       4.41840598     8.43417100     3.76877302     0.13596821    -0.91109285    -0.95911902
O       4.43898299     3.77360599     3.76695101     0.19639302    -0.33354857    -0.39031597
O       1.47277199     8.41221798     3.83344398     0.30044946    -0.36303399    -1.02143744
O       1.51399601     3.74857601     3.68998302    -0.45535488     0.28109573     0.78851135
O       2.94962600     5.99582299     3.23190402     0.33966548     0.43454385    -0.43356220
O       3.01622402     1.48484300     3.29091501    -0.47606872    -0.18802639     0.07764426
O       0.06141298     6.04012301     3.13018699    -0.63153156    -0.58611044     0.93659409
O       5.89645900     1.48075500     3.29528998    -0.06470415     0.27096506    -0.18538792
O       2.95992898     7.84324501     1.40171698     0.31610260    -0.06952471     0.38146649
O       2.87410002     3.23441999     1.44158202     0.80544413     0.19017994    -0.26424677
O       5.93288402     7.80156002     1.38998200    -0.18641842     0.25949254     0.50562845
O       5.87873199     3.22118199     1.41141802     0.35671010     0.37286923    -0.19386202
