# total energy = -19864.29639203 eV

CRYSTAL
PRIMVEC
        7.18135660     0.00000000     0.00000000
        0.00002233     2.54771170     0.00000000
        0.00000000     0.00000000    11.42493265
PRIMCOORD
24 1
Ti      2.60290943     1.50977151     4.23856862    -1.17551651     0.77046194    -0.91857245
Ti      4.57846921     1.03793995     7.18636437     1.17551651    -0.77046194     0.91857245
Ti      6.19346523     1.03794077     1.47385223    -1.17404764    -0.77092243     0.92060414
Ti      0.98791345     1.50977078     9.95108086     1.17404764     0.77092243    -0.92060414
Ti      2.60289856     0.23591571     1.47389804    -1.17551651     0.77046194     0.91857245
Ti      4.57848012     2.31179585     9.95103505     1.17551651    -0.77046194    -0.91857245
Ti      0.98790253     0.23591484     7.18631855     1.17404764     0.77092243     0.92060414
Ti      6.19347615     2.31179671     4.23861444    -1.17404764    -0.77092243    -0.92060414
O       2.27295246     0.89709252     5.83005581    10.22220140    -1.40119004     5.15272070
O       4.90842623     1.65061898     5.59487717   -10.22220140     1.40119004    -5.15272070
O       1.31778333     0.89710286     0.11762611   -10.22330029    -1.40153765     5.15323158
O       5.86359540     1.65060864    11.30730654    10.22330029     1.40153765    -5.15323158
O       4.90841531     0.37676308     0.11758900   -10.22220140     1.40119004     5.15272070
O       2.27296337     2.17094837    11.30734365    10.22220140    -1.40119004    -5.15272070
O       5.86358448     0.37675279     5.83009287    10.22330029     1.40153765     5.15323158
O       1.31779411     2.17095871     5.59484012   -10.22330029    -1.40153765    -5.15323158
O       0.26092870     1.54966267     3.08615939     2.83315773    -0.77321457     6.89569867
O       6.92044998     0.99804878     8.33877355    -2.83315773     0.77321457    -6.89569867
O       3.85161650     0.99802517     2.62634340     2.83528403     0.77362852    -6.89533254
O       3.32976219     1.54968634     8.79858939    -2.83528403    -0.77362852     6.89533254
O       0.26091778     0.27580682     2.62630693     2.83315773    -0.77321457    -6.89569867
O       6.92046090     2.27190468     8.79862586    -2.83315773     0.77321457     6.89569867
O       3.32975132     0.27583044     8.33880997    -2.83528403    -0.77362852    -6.89533254
O       3.85162737     2.27188101     3.08612292     2.83528403     0.77362852     6.89533254
