# total energy = -19960.35663435 eV

CRYSTAL
PRIMVEC
        5.93400000     0.00000000     0.00000000
        0.00000000     9.29699974     0.00000000
        0.00000000     0.00000000     4.64899994
PRIMCOORD
24 1
Ti      4.43666800     6.97427601     2.34812700     1.13073482    -0.97593739    -0.51865623
Ti      4.43237700     2.36420599     2.26779699    -0.22191200     0.50734826     0.46171425
Ti      1.49340202     7.00468502     2.31684399    -1.40202385    -0.72147470    -0.31794839
Ti      1.51535599     2.30816501     2.42400101    -0.18664802     0.29385175    -0.40028337
Ti      2.97211699     4.66413701     4.62633798    -0.49412456     0.20747885     0.43257515
Ti      2.96060003     9.28157597     0.05644199    -1.33488229     0.16840115     0.23665548
Ti      0.00561499     4.60616098     0.01996199     0.55644889     0.46392540     0.26822144
Ti      5.87729803     0.05320898     4.59028900     1.12755257    -0.48979456     0.70805790
O       4.46416198     5.60282199     0.89417001    -0.08046013    -0.79412459    -0.48566563
O       4.43599901     0.81409300     0.97877899     0.05451075     0.97072267     0.48343082
O       1.47063999     5.52985400     0.80541301     0.49146424     0.83442047     0.49080809
O       1.48883898     0.83914600     1.03436398    -0.03010969    -0.31076113    -0.71465716
O       4.37878098     8.44606902     3.70167101     0.43233681    -0.30500648    -0.28761373
O       4.46913598     3.73956698     3.80476300    -0.10607964    -0.77814003    -0.93757857
O       1.44555598     8.45419200     3.80121502     0.52183695    -0.63204321    -1.36499558
O       1.53536800     3.75043401     3.70912098    -0.22186186    -0.05218082     0.55502219
O       2.95434801     5.96227199     3.18034501     0.19863142     1.09756090    -0.34074740
O       3.04225800     1.48849099     3.27062201     0.65456403    -0.39916726     0.30047234
O       0.03154097     5.97350700     3.05685700    -0.23216067     0.77031539     0.73216561
O       5.93268002     1.52238601     3.30725002    -1.00248301    -0.61699531    -0.04588470
O       2.96409799     7.69587602     1.35563199     0.12936999     1.52515505    -0.42996934
O       2.79435598     3.17247900     1.36360198     2.69059335     0.16291621     0.18085969
O       0.01934698     7.80577503     1.23772500    -0.19675374     0.10359493     1.45667523
O       0.22516000     3.37646402     1.50305897    -2.47854488    -1.03006556    -0.46265810
