# total energy = -19939.38597249 eV

CRYSTAL
PRIMVEC
        5.85867040     0.00000000     0.00000000
        2.11756791     5.86481778     0.00000000
        0.00000000     0.00000000    10.65506832
PRIMCOORD
24 1
Ti      3.37835511     3.47548550     3.95295437     0.41913188    -2.57598973     0.90864208
Ti      4.59788342     2.38933213     6.70211407    -0.41913188     2.57598973    -0.90864208
Ti      5.91542484     2.38933413     1.37453731    -1.26765254    -0.80020242     0.38837350
Ti      2.06081372     3.47548368     9.28053125     1.26765254     0.80020242    -0.38837350
Ti      2.31957130     0.54307676     1.37458003     0.41913188    -2.57598973    -0.90864208
Ti      5.65666725     5.32174099     9.28048853    -0.41913188     2.57598973     0.90864208
Ti      1.00202979     0.54307460     6.70207135     1.26765254     0.80020242     0.38837350
Ti      6.97420877     5.32174320     3.95299709    -1.26765254    -0.80020242    -0.38837350
O       2.59993788     2.06510197     5.43719981     1.64025310     2.05421371    -0.87021307
O       5.37630064     3.79971565     5.21786863    -1.64025310    -2.05421371     0.87021307
O       1.82070353     2.06512563     0.10969993    -0.16046235    -0.56634919     1.23109504
O       6.15553507     3.79969204    10.54536822     0.16046235     0.56634919    -1.23109504
O       4.31751681     0.86730680     0.10966535    -1.64025310    -2.05421371    -0.87021307
O       3.65872172     4.99751083    10.54540279     1.64025310     2.05421371     0.87021307
O       5.09675123     0.86728313     5.43723439     0.16046235     0.56634919     1.23109504
O       2.87948724     4.99753451     5.21783406    -0.16046235    -0.56634919    -1.23109504
O       1.50088385     3.56731454     2.87819978     0.50253670     1.93635276     1.84331581
O       6.47535468     2.29750309     7.77686866    -0.50253670    -1.93635276    -1.84331581
O       3.97172931     2.29744845     2.44936831     1.03362499     1.49032507     0.69162855
O       4.00450921     3.56736917     8.20569996    -1.03362499    -1.49032507    -0.69162855
O       0.44210002     0.63490569     2.44933426     0.50253670     1.93635276    -1.84331581
O       7.53413851     5.22991194     8.20573400    -0.50253670    -1.93635276     1.84331581
O       2.94572538     0.63496032     7.77690259    -1.03362499    -1.49032507     0.69162855
O       5.03051315     5.22985731     2.87816579     1.03362499     1.49032507    -0.69162855
