# total energy = -19933.05606460 eV

CRYSTAL
PRIMVEC
        7.18135689     0.00000000     0.00000000
        0.00002710     4.58588106     0.00000000
        0.00000000     0.00000000    10.96793558
PRIMCOORD
24 1
Ti      2.60291232     2.71758885     4.06902589     0.44626268     0.10201678     1.25299751
Ti      4.57847120     1.86829215     6.89890980    -0.44626268    -0.10201678    -1.25299751
Ti      6.19346721     1.86829369     1.41489814     0.44607679    -0.10156530    -1.25364594
Ti      0.98791637     2.71758748     9.55303762    -0.44607679     0.10156530     1.25364594
Ti      2.60289901     0.42464838     1.41494213     0.44626268     0.10201678    -1.25299751
Ti      4.57848451     4.16123274     9.55299368    -0.44626268    -0.10201678     1.25299751
Ti      0.98790299     0.42464672     6.89886581    -0.44607679     0.10156530    -1.25364594
Ti      6.19348053     4.16123440     4.06906983     0.44607679    -0.10156530     1.25364594
O       2.27295421     1.61476663     5.59685359     1.17753869     0.80730175    -0.95525645
O       4.90842937     2.97111431     5.37108210    -1.17753869    -0.80730175     0.95525645
O       1.31778506     1.61478515     0.11292105    -1.17730780     0.80728890    -0.95577376
O       5.86359858     2.97109585    10.85501429     1.17730780    -0.80728890     0.95577376
O       4.90841606     0.67817372     0.11288545    -1.17753869    -0.80730175    -0.95525645
O       2.27296752     3.90770722    10.85504989     1.17753869     0.80730175     0.95525645
O       5.86358521     0.67815526     5.59688913     1.17730780    -0.80728890    -0.95577376
O       1.31779826     3.90772574     5.37104650    -1.17730780     0.80728890     0.95577376
O       0.26093169     2.78939282     2.96271303    -1.71508431     0.63209489     0.74970953
O       6.92045189     1.79648812     8.00522261     1.71508431    -0.63209489    -0.74970953
O       3.85161840     1.79644548     2.52128965    -1.71507403    -0.63198973    -0.74992499
O       3.32976512     2.78943552     8.44664581     1.71507403     0.63198973     0.74992499
O       0.26091832     0.49645224     2.52125464    -1.71508431     0.63209489    -0.74970953
O       6.92046520     4.08942870     8.44668081     1.71508431    -0.63209489     0.74970953
O       3.32975180     0.49649493     8.00525756     1.71507403     0.63198973    -0.74992499
O       3.85163172     4.08938601     2.96267802    -1.71507403    -0.63198973     0.74992499
