# total energy = -19882.40441516 eV

CRYSTAL
PRIMVEC
        9.27753636     0.00000000     0.00000000
        0.00002884     3.29136809     0.00000000
        0.00000000     0.00000000    14.75977785
PRIMCOORD
24 1
Ti      3.36267758     1.95046157     5.47577244     0.20165812     0.10083870     2.01531779
Ti      5.91488724     1.34090620     9.28400586    -0.20165812    -0.10083870    -2.01531779
Ti      8.00128751     1.34090726     1.90405774     0.20225411    -0.09975961    -2.01476784
Ti      1.27627738     1.95046064    12.85572068    -0.20225411     0.09975961     2.01476784
Ti      3.36266354     0.30477759     1.90411693     0.20194069     0.10118246    -2.01420014
Ti      5.91490135     2.98659031    12.85566149    -0.20194069    -0.10118246     2.01420014
Ti      1.27626327     0.30477647     9.28394667    -0.20151491     0.09986991    -2.01493727
Ti      8.00130162     2.98659143     5.47583163     0.20151491    -0.09986991     2.01493727
O       2.93640885     1.15894655     7.53180184     1.09721817     0.47432989    -1.90450861
O       6.34115604     2.13242128     7.22797646    -1.09721817    -0.47432989     1.90450861
O       1.70243361     1.15895992     0.15196021    -1.09662578     0.47453994    -1.90718410
O       7.57513135     2.13240792    14.60781764     1.09662578    -0.47453994     1.90718410
O       6.34114194     0.48673717     0.15191228    -1.09574492    -0.47335261    -1.90646085
O       2.93642295     2.80463060    14.60786557     1.09574492     0.47335261     1.90646085
O       7.57511724     0.48672387     7.53184971     1.09973271    -0.47379947    -1.90665034
O       1.70244752     2.80464396     7.22792859    -1.09973271     0.47379947     1.90665034
O       0.33709167     2.00199664     3.98698429    -1.45066502     0.52011174     0.88913460
O       8.94047322     1.28937113    10.77279394     1.45066502    -0.52011174    -0.88913460
O       4.97587212     1.28934062     3.39295174    -1.44785146    -0.52008114    -0.89137814
O       4.30169277     2.00202722    11.36682630     1.44785146     0.52008114     0.89137814
O       0.33707756     0.35631260     3.39290463    -1.45011789     0.52104942    -0.89026820
O       8.94048733     2.93505523    11.36687341     1.45011789    -0.52104942     0.89026820
O       4.30167873     0.35634311    10.77284099     1.44795688     0.52106562    -0.88987559
O       4.97588616     2.93502466     3.98693718    -1.44795688    -0.52106562     0.88987559
