# total energy = -19958.17462243 eV

CRYSTAL
PRIMVEC
        7.60600008     0.00000000     0.00000000
        0.00000000     7.60600008     0.00000000
       -1.89786986    -1.89786986     4.85670466
PRIMCOORD
24 1
Ti      3.94642401     6.58300701     1.22323100    -2.25427827    -2.78436177    -0.89790258
Ti      3.75429600     2.61109401     1.41123201    -2.67815126     1.69407376    -0.28131787
Ti      0.09657300     6.90971802     1.12881699     2.10729287    -3.57803976     0.63946110
Ti     -0.06323202     2.85291097     1.11232100     1.69419589     2.46260841     1.12321331
Ti      5.69279821     3.00844924     3.64029682     0.53915436    -0.04621791     1.19048188
Ti      5.78972422    -0.78609778     3.54757581     0.05967430    -0.58502312    -0.59728291
Ti      1.72322624     2.65004421     3.65900181     0.70364769     0.89200909     1.72159872
Ti      1.83341020    -0.97561478     3.74313681     0.77093940    -0.54068237    -1.12323774
O       3.77998200     4.65809603     0.82882699    -0.12559047     1.20124684     0.26848215
O       3.85066801     0.86422000     0.84662603     0.90167156    -1.40324615    -0.50461364
O       0.05313400     4.86994801     0.78464799    -0.48060878    -0.31148541    -0.97630171
O       0.04127302     1.02993699     0.64807899    -1.25502791     0.08934792    -0.10698956
O       6.05606521     4.88497125     3.93923979    -1.11086662    -0.44459404     0.44434798
O      -1.52831380     0.99271721     4.12640280    -1.51194497     0.69598606    -2.05749650
O       1.69723522     4.51618423     3.95533879     0.61855469     2.32638900     0.86511431
O       1.52867925     0.84268424     4.41869783     1.03776216    -0.28152639    -3.06721845
O       3.57851025     2.54827522     3.42394482     2.08578353     0.21214797    -0.83974600
O       3.75152824    -0.99008778     3.19200082     2.37376982     0.38423737     0.70068758
O      -0.03454675     2.83201424     2.99642083    -1.68160802    -0.30910636     0.80559814
O       0.08737325    -0.76835277     3.21143084    -1.19592568    -0.49021494    -1.48911485
O       5.82741302     6.74643202     1.42402101    -0.12489858     0.21046878     1.54859375
O       5.45942300     3.03997402     1.74044201     3.11003196    -0.33775335     0.00178383
O       2.05173101     6.73635400     1.60391502    -2.47321652     0.32837936     0.37024233
O       1.82609798     2.58866600     1.41257400    -1.11036165     0.61535726     2.26161697
