# total energy = -19516.53904873 eV

CRYSTAL
PRIMVEC
        5.17600016     0.00000000     0.00000000
        0.00000000     5.50899976     0.00000000
        0.00000000     0.00000000     9.26300011
PRIMCOORD
23 1
Ti      1.76330300     3.16085700     3.34530998     1.42755260     0.81817624     2.61636840
Ti      3.25369300     2.22145800     5.92730898     2.50044606     1.45614713    -3.54279661
Ti      4.54943101     2.02172301     1.41209002    -2.46072122     0.17735785    -0.81934095
Ti      1.02359099     3.32898402     7.80213598    -1.69638467     0.73491900    -0.73841339
Ti      2.00124602     0.36436801     1.37701297    -0.41610260    -0.36966075    -2.63461219
Ti      3.23294099     5.30557598     7.87917001     0.63803363    -1.14671886     0.44436804
Ti      0.68494798     0.47269001     5.99666200    -1.30967493     0.16139746    -2.90969076
Ti      4.51448600     4.81964998     3.41397898    -1.21356526     1.20212770     4.37291845
O       1.71427002     2.00859602     4.73221201    -0.65564595    -1.47558185    -0.04789556
O       3.57625299     3.54007198     4.44493300    -0.98796038    -0.28278931    -0.27725141
O       5.13573998     2.75281302     9.16514401     0.50799927    -0.33590215     1.07183571
O       3.47395900     0.78304099     0.14815799     0.71324999     0.60042532     0.39925107
O       1.91825700     4.55536298     9.01266402    -0.35647613     0.16079917     0.84086289
O       4.28436798     0.67862601     5.03014901    -1.26522337     0.29825013    -1.00307462
O       0.87981401     4.63350299     4.50641599     1.03228133     0.32815285     0.20741637
O       5.15587999     3.37373400     2.60178499     1.41516810    -2.18845543    -2.13686211
O       5.07577298     2.20952399     6.67351399    -0.20348438     0.11751823     0.40459383
O       2.54947201     1.99568600     2.01859398     0.73161745     1.01346291     0.23111218
O       2.58748202     3.75415502     6.78190902     0.41809650     0.35810364     0.72734350
O       0.18570502     0.54306000     2.13672301     0.77088026     0.24648250    -0.68496450
O       5.05850201     4.89126401     7.27364401     0.06381172    -0.72723783     0.90155354
O       2.23670201     1.09520000     7.02068798    -0.50792188     0.09625340     1.09407473
O       2.74083002     4.69937598     2.35736199     0.85402386    -1.24322706     1.48320312
