# total energy = -4985.33677149 eV

CRYSTAL
PRIMVEC
        3.46863337     0.00000000     0.00000000
        0.85380973     3.36190815     0.00000000
       -2.16125314    -1.68097864     4.46228833
PRIMCOORD
6 1
Ti      0.64024466     2.52155986     1.11557201     0.00151901    -0.00149047    -0.00102407
Ti      1.52094547    -0.84063022     3.34671603    -0.00151901     0.00149047     0.00102407
O       0.21348880     0.84047225     0.72687025     0.00074999     0.00215227     0.96053544
O       1.94770117     0.84045731     3.73541779    -0.00074999    -0.00215227    -0.96053544
O      -0.21346402    -0.84045297     2.95801428     0.00214224     0.00071888     0.95950443
O       2.37465399     2.52138248     1.50427377    -0.00214224    -0.00071888    -0.95950443
