# total energy = -4980.95216495 eV

CRYSTAL
PRIMVEC
        4.04376550     0.00000000     0.00000000
        0.00000000     2.40330077     0.00000000
        0.00000000    -0.00009594     5.47916958
PRIMCOORD
6 1
Ti      2.02188275     1.20160227     2.73958454     0.00000000     0.00000000     0.00000000
Ti      0.00000000     0.00000000     0.00000000     0.00000000     0.00000000     0.00000000
O       2.02188275     0.46834917     1.06780937    -0.00000000    -1.15288591    -0.19421426
O       2.02188275     1.93485536     4.41135972    -0.00000000     1.15288591     0.19421426
O       0.00000000     0.73321515     3.80739512    -0.00000000     1.15258484    -0.19597933
O       0.00000000     1.66998939     1.67177397    -0.00000000    -1.15258484     0.19597933
