# total energy = -39032.22374955 eV

CRYSTAL
PRIMVEC
        5.93200024     0.00000000     0.00000000
        0.00000000     9.29399984     0.00000000
        0.00000000     0.00000000     9.29399984
PRIMCOORD
46 1
Ti      4.49691599     6.98202099     7.04034098    -0.20855897    -0.37978884     0.14932741
Ti      4.35068902     6.96845501     2.38668502     0.81132913     0.01611285    -0.49245591
Ti      4.53282199     2.32938999     6.86319800     0.25079449    -1.29184972     1.59050789
Ti      4.46509402     2.22906100     2.39302298    -1.63867135    -1.01030765     0.54450869
Ti      1.56084402     6.93882902     6.98872699    -0.68707667     0.29832367    -0.04957037
Ti      1.46055101     6.96223601     2.37075398    -0.87345626     0.88083867     0.02876654
Ti      1.53857000     2.38130101     6.88927099     0.36001860    -1.35594889     1.30836032
Ti      1.59838999     2.64885202     2.10945599    -0.35880606    -1.62308995     1.27703322
Ti      2.84529701     4.55898499     4.73652798     0.44330926     0.38605000    -1.20328392
Ti      2.92094401     4.85441200     9.13468701     0.00964524    -1.15917895     1.56818479
Ti      2.98807300     0.22008699     4.75964202    -0.03952507    -0.85927122    -1.69778849
Ti      3.08669497     9.12314703     9.23630401    -1.41532957     1.34676208     0.05492418
Ti      5.81262600     4.70991401     4.70375899    -0.21168363    -0.24274128    -0.71555216
Ti      5.84298802     4.61668399     9.25020799     0.07693026     1.38231093     0.05280585
Ti      0.00745198     8.91824600     4.68083901     0.53621071    -0.33766002    -0.52706812
Ti      0.07785002     0.09501499     0.00943502     1.51390133     0.31043614     0.55009441
O       4.05408502     5.52260798     5.79857899     1.66583558    -0.60778124    -0.43143436
O       4.41048002     5.90190598     0.70040800     0.89111589    -2.20199332     0.69826200
O       4.59238502     0.66732500     5.68434698     0.61725448     0.65781082    -0.69453775
O       4.48365798     0.83616001     0.79723802    -0.38613819     1.75562754     2.21675506
O       1.34490499     5.48199701     5.66433202     1.08997151     0.04671439     0.02224699
O       1.46798500     5.58660202     0.94091599    -0.39800075    -1.03719908    -0.07586737
O       1.40772399     0.67246501     5.52497398    -0.88765930     1.20598821     0.50271179
O       1.69892499     0.95397402     0.73710898    -1.50912319     1.36932326     1.26110111
O       4.57881400     8.60322302     8.25977699    -0.16385081    -2.21472620    -0.90032944
O       4.35054101     8.48521702     3.66863601     1.17627165     0.34323109     0.83852987
O       4.35163599     3.86988699     8.32469502     0.28760396    -1.36383241     0.10929301
O       4.38365301     3.80066902     3.78326099     0.21595912    -0.91917846    -0.10369340
O       1.21334099     8.14007799     8.55765700     1.52791179     0.20654939    -1.20290289
O       1.81545898     8.33460101     3.67633501    -2.06901428     0.03899979     1.13893227
O       1.57867502     3.82495402     8.08378501     0.07809163     0.08886276     1.54691430
O       1.34875798     3.65002601     3.87470398    -0.09431684     0.21424239    -1.30983022
O       2.87201999     6.26674200     8.10545900     0.96772091     1.09178902    -1.34136121
O       2.98497499     5.82712398     3.19094898    -0.15235155     1.18198876    -0.08183413
O       2.96940897     1.33688001     7.92964600     0.06281722     0.98739551    -1.78710814
O       2.82602798     1.42997801     3.21111598     0.33321766     1.48632624    -0.52753503
O       0.01055000     5.82551099     7.80798699    -0.57823412     1.28308457     0.02107585
O       5.87922698     6.19609398     3.45623702     0.22173073    -0.40736188    -0.31819239
O       0.12178199     1.49286400     7.81559402    -0.15157713    -0.04612921     0.48294566
O       3.02378501     7.78641100     6.10986502    -0.73239238     0.66576401     0.22068995
O       3.02428899     7.92549598     1.44549798    -0.63497478    -0.62735815    -0.02695134
O       3.15221098     2.83862901     5.78280798    -1.62284184     0.84456656     0.14076795
O       0.02309901     7.68580398     6.01873001    -0.36336643     0.14523293    -0.18394347
O       0.00359698     8.01774100     1.68323700     0.44652519    -0.56784531    -0.62231878
O       0.03178799     3.20673301     5.96733198    -0.73612382    -0.49155654     0.62468934
O       5.68220900     3.35527799     1.75285302     2.32890714     0.51046701    -2.65586956
