# total energy = -19955.69903968 eV

CRYSTAL
PRIMVEC
        5.93400000     0.00000000     0.00000000
        0.00000000     9.29699974     0.00000000
        0.00000000     0.00000000     4.64899994
PRIMCOORD
24 1
Ti      4.41901798     6.62235298     2.14934802     0.57568307     2.94480561     1.42259011
Ti      4.43399697     2.53154301     2.28743799    -0.16590384    -6.44149050     0.28892037
Ti      1.44345001     6.82433199     2.01025701    -0.60975894     1.87430970     0.62522079
Ti      1.51880999     2.55618499     2.31874702     0.54115880    -4.94294560     0.56994770
Ti      3.03326702     4.69609698     4.45511099    -1.87685047    -3.24461178     0.25212196
Ti      2.96935500     9.10738802     0.37430199     1.59108562     3.39041781    -2.15984161
Ti      5.88175698     4.68066099     4.63165801     2.22901640    -3.14470304    -0.28013311
Ti      0.09079502     9.27124199     0.26419301    -1.44940569     3.12232518    -1.58525409
O       4.43461701     5.81249202     0.51859598    -0.66346982     0.11155429     0.42895838
O       4.32404500     0.92023400     1.03701500     1.35285456     2.21796631     1.30856498
O       1.50597702     5.72047899     0.55183800     0.18588826     0.32166826     0.60039318
O       1.58293198     0.83212800     1.14196001    -1.21973539     2.05772559     0.24740115
O       4.49816802     8.51647198     4.14720698    -0.15389524    -2.09591728    -2.41851371
O       4.54868302     3.71859098     3.70746900    -0.71675441     2.11041214     2.13245730
O       1.50584298     8.44937802     4.17740797    -0.57934380    -2.73518298    -3.03597311
O       1.37698900     3.57504900     3.85115200     0.44366741     3.48381317     1.74368347
O       2.85959797     5.76977402     2.86213898     0.52960400     0.15027127     0.39310434
O       2.82772399     1.59447498     3.22796101     1.16653822     1.09512015    -0.48176655
O       5.90869099     5.84105002     3.02458697     0.04018739     0.94586781    -1.08807918
O       0.08776902     1.57660699     3.13598498    -0.84925369    -0.37308083     0.67732755
O       2.92084802     8.00432101     1.78824402     0.40083925    -3.34653163     1.99538608
O       3.12530401     3.48741302     1.39190402    -1.39425243     1.58557111    -1.54262442
O       5.84087200     7.87442202     1.45741299     0.12607692    -2.62473195     2.93512798
O       5.88194902     3.26924599     1.45865402     0.49602358     3.53736772    -3.02901930
