# total energy = -19074.10427088 eV

CRYSTAL
PRIMVEC
        5.93400000     0.00000000     0.00000000
        0.00000000     9.29699974     0.00000000
        0.00000000     0.00000000     4.64899994
PRIMCOORD
22 1
Ti      4.46738203     7.01528502     2.35729700    -0.36444450    -1.69960575    -0.13015572
Ti      4.38131399     2.22451802     2.26994000     0.24606675     0.65275911     0.35724720
Ti      1.46271498     7.12269700     2.42724201     0.69691165    -0.50598069     1.42688025
Ti      1.57913000     2.46333502     2.12395201    -0.46951318     0.09812182    -0.22969781
Ti      3.03752298     4.70595699     4.63969299     0.50209961    -0.10217028    -0.65830010
Ti      2.98321399     9.25598703     0.13836202    -1.24739662     1.51186193    -0.51404959
Ti      5.85412599     4.55844698     4.46853002     0.25731893    -0.96568819     0.39242505
Ti      5.85869702     9.09206300     0.08540497     1.98990012     1.13864045     1.12014907
O       4.54741299     5.48530400     1.01240302    -0.68236383     0.84369470    -0.06593751
O       4.45910199     0.94087498     0.90987901     0.84727034    -1.02160379    -0.93449067
O       1.48039299     0.83085300     0.96154200    -0.25875643     1.19745215    -0.32533260
O       4.47946902     8.30524802     3.85393298    -0.92590293     0.06037852    -0.08170892
O       4.33160001     3.84861602     3.61058400     0.43046813    -0.98050624    -0.20312134
O       1.54397300     8.41298301     3.79886098    -0.72843622    -0.39173985     0.24106235
O       1.50867698     3.77753900     3.73192101     0.02794867    -0.01887705    -0.45268402
O       2.97677401     6.00836100     3.13909500    -0.85563182     0.45781954     0.64801697
O       2.92666198     1.35027698     3.08510802     0.21064490     0.30094568     0.96321453
O       5.89113299     6.16602698     3.45983098     0.84387982     0.34576671    -1.36635595
O       2.96084001     8.07196801     1.58530201     0.10070552    -1.34934321    -0.35935628
O       3.13285003     3.07012098     1.24942400    -1.36267181     1.77633187    -0.40076597
O       5.92824499     8.15602401     1.69528298    -0.07643275    -1.02491306    -0.85730381
O       5.88045002     3.12083701     1.19328798     0.81833513    -0.32334437     1.43026537
