# total energy = -19516.63602320 eV

CRYSTAL
PRIMVEC
        5.17600016     0.00000000     0.00000000
        0.00000000     5.50899976     0.00000000
        0.00000000     0.00000000     9.26300011
PRIMCOORD
23 1
Ti      1.89253100     3.21632901     3.43477300     0.86927719    -0.99959232     2.11159870
Ti      3.33704302     2.25452702     5.83169602     0.12883777     0.43185370    -1.14370347
Ti      4.33857399     2.17125701     1.61566800     0.45008515    -2.19121731    -0.75501681
Ti      0.83081500     3.35304401     7.83078601    -0.32842924     0.79994480     0.75658081
Ti      1.94955598     0.19445602     1.27746198    -0.19888262     0.94836975    -1.43132440
Ti      3.45687801     5.18551101     7.89102998    -2.43520918     0.30481519     0.50414158
Ti      0.72824003     0.50809901     5.75029099    -0.26335717     0.91272473    -0.57923993
Ti      4.59016300     4.90695898     3.38587200    -1.85753916     1.33512834     1.08381911
O       1.66753001     1.92079800     4.86660800     0.13220849     0.98446162    -1.42389674
O       3.57763298     3.64352099     4.63449599    -0.77818863    -0.37421315    -1.05978649
O       4.79306401     3.00012898     0.16187098     0.76883495     0.64560039    -1.94971067
O       3.51743203     0.56202201     0.23842600     0.93508743     0.87773638     0.03778623
O       1.44370301     4.93995202     8.98009602     0.56953196    -1.47495681    -0.10011262
O       4.35670201     0.82044398     4.67330500    -1.04566573     0.41507879    -0.55175766
O       0.83171699     4.68375699     4.44605301     2.80030596    -0.83798479     1.36044112
O       0.15532998     3.22382501     2.79152599    -0.45862532    -0.45377879    -1.30646927
O       4.98803301     2.11651199     6.69384498     1.36316186     0.18281579     1.78272877
O       2.57935401     1.85709300     2.16777598    -0.46264627     1.64450133     0.25167175
O       2.67979598     3.65010301     7.04670900    -1.51620915    -1.98238452     1.35409846
O       0.26728600     0.61626702     2.03238101    -1.13196458     0.13106743     0.23900290
O       5.07224401     4.85322701     7.15597600     0.73919449    -0.32494411    -0.93065201
O       2.49186101     0.61655801     6.60983000     0.33237229     0.35101922     1.55527142
O       2.67565702     4.72595401     2.54916699     1.38782004    -1.32604592     0.19452897
