# total energy = -39040.37674832 eV

CRYSTAL
PRIMVEC
        7.60629642    -0.00000847    -0.00005503
       -0.00000847     7.60629642    -0.00005503
       -3.80314186    -3.80314186     9.70738094
PRIMCOORD
46 1
Ti      1.90150191     4.71082116     6.09490162     0.00002211    -0.08149989    -0.15388238
Ti      3.83971249     6.66488163     1.18750498    -0.04556202    -0.02921674     0.04182595
Ti      1.90158758     0.99275459     5.94187253    -0.00055793    -0.02151320    -0.06813580
Ti      3.79814683     2.84467352     1.23755335    -0.03719668     0.02524001     0.06176949
Ti     -1.90163592     4.76554191     6.06229974    -0.00014450     0.07695803     0.01352221
Ti     -0.03668531     6.66486233     1.18757920     0.04560573    -0.02938232     0.04178995
Ti     -1.90175677     0.94096573     6.11399871     0.00010824     0.00013550     0.09657556
Ti      0.00467561     2.84459394     1.23763230     0.03735094     0.02559174     0.06180266
Ti      3.88492791     0.94077967     8.54711253     0.04786779     0.01817154    -0.00549728
Ti      5.70493543     2.84455599     3.65258023    -0.00028514    -0.08762014     0.02008727
Ti      3.79422076    -2.84212094     8.48621717    -0.06920667     0.01188184     0.05782439
Ti      5.70475055    -0.94006635     3.65330022    -0.00025865     0.06498877    -0.08960426
Ti     -0.08188094     0.94083181     8.54700026    -0.04730703     0.01821653    -0.00532116
Ti      1.90178157     2.91653611     3.68404162    -0.00033681    -0.05003291     0.01227856
Ti      0.00928922    -2.84206435     8.48625371     0.06904752     0.01185330     0.05777168
Ti      1.90157566    -0.97666510     3.47341138    -0.00014578     0.04465802     0.04649302
O       1.90164593     2.85408051     5.65118206     0.00008716     0.01551584     0.01014841
O       3.83838387     4.74939590     0.81133313     0.03205113     0.00609583    -0.06777276
O       3.78551729     0.95284648     0.76343132    -0.02632245    -0.00930457     0.01923623
O      -1.90154304     2.83319798     5.71322443     0.00004191    -0.03387533     0.05170413
O      -0.03528037     4.74938045     0.81144169    -0.03224730     0.00594285    -0.06809364
O      -1.90158358    -0.93611281     5.66659773     0.00011956     0.03016188    -0.01626095
O       0.01772484     0.95282274     0.76348757     0.02619132    -0.00927423     0.01926323
O       3.66745364     2.83005844     8.86322757    -0.00816326    -0.04585333    -0.02031481
O       5.70470633     4.75184167     4.09026006     0.00005194    -0.02178574     0.00422355
O       3.70313988    -0.93215287     8.91653873     0.00647044     0.03439006    -0.03115998
O       5.70469711     0.95304104     4.08558608     0.00000437    -0.00115597     0.10744001
O       0.13571499     2.83006621     8.86321258     0.00820285    -0.04590269    -0.02028267
O       1.90144229     4.83400126     4.08359997     0.00003857     0.06193378    -0.04609938
O       0.10003938    -0.93210660     8.91655642    -0.00644987     0.03454535    -0.03124971
O       1.90148425     0.85482445     4.05043151     0.00012804     0.03222262     0.07467772
O       3.78925452     2.85062916     3.25353099    -0.06027568     0.01638770     0.00648278
O       1.90161958    -2.81409530     8.07712012     0.00005631     0.01304321    -0.09908470
O       3.82126477    -0.95264540     3.17952001    -0.04338147    -0.01182476     0.03242162
O      -1.90163231     0.97929085     8.09734004     0.00073405     0.04133513     0.00926960
O       0.01387722     2.85059719     3.25354805     0.06029882     0.01627175     0.00651312
O      -1.90154479    -2.87416477     8.08073975     0.00010284    -0.02116173     0.03132402
O      -0.01816209    -0.95262948     3.17957124     0.04348688    -0.01181551     0.03241442
O       3.78887546     4.86734822     6.46758392    -0.05337535    -0.00950871    -0.00873815
O       5.70469920     6.67812155     1.62797240    -0.00011776     0.03818861    -0.05155269
O       3.67867500     0.81365670     6.54325244    -0.06855592    -0.04582222    -0.06798719
O       5.70470062     2.82858016     1.68797734    -0.00006094    -0.03816496    -0.04747878
O       0.01427754     4.86735052     6.46763159     0.05345917    -0.00942798    -0.00887571
O       1.90156911     6.63260476     1.53456724    -0.00000823     0.00668950    -0.00525405
O       0.12458402     0.81363646     6.54336716     0.06834458    -0.04586824    -0.06771517
O       1.90155878     2.87111128     1.62202693     0.00008767     0.00959150     0.06350113
