# total energy = -19959.33818717 eV

CRYSTAL
PRIMVEC
        7.60600008     0.00000000     0.00000000
        0.00000000     7.60600008     0.00000000
       -1.89786986    -1.89786986     4.85670466
PRIMCOORD
24 1
Ti      3.80788900     6.85643998     1.06947400     2.44896870    -0.11213922    -0.42238356
Ti      3.77616700     2.86577802     1.20302500    -0.01566805     0.34131073    -0.72287415
Ti     -0.04630401     6.63675797     1.23927697    -1.28031909    -1.13725283     0.75700864
Ti     -0.13843002     2.65721900     1.31666798     0.00141488     0.74239989     0.28504906
Ti      5.53263022     2.84155822     3.79205380     1.24677081    -0.88008508    -0.30802162
Ti      5.65422023    -0.97260276     3.61669880     1.76552217     0.59482185     0.22665260
Ti      1.94395522     2.83462822     3.66590683    -0.57489939    -0.29318763    -0.12191687
Ti      2.03174224    -0.92235579     3.40652780    -0.98014063     0.60906320     2.14886068
O       4.07430398     4.75114100     0.93773400    -1.30030222     1.55531924    -1.37830824
O       4.22555300     1.12737900     0.60334298    -2.05468217    -1.86880368    -0.29063375
O      -0.29623602     4.77359102     0.84525498     0.59591843    -0.53067666     0.81243625
O      -0.10112202     0.78936000     0.73078299     0.20735081     2.35280632     0.83635189
O       5.54138821     4.68980422     4.12926883     0.25799924     0.49993037    -1.13865665
O       5.89017920     0.88634221     4.29768081    -0.40594160    -0.09938629    -0.70045669
O       2.26357823     4.91457623     3.88141379    -1.26442041    -1.72993038     1.11388484
O       1.85935724     1.05654022     4.01659381    -0.55949334    -1.28280380     0.35646687
O       3.82285821     2.43136023     3.38661380    -0.43874760     1.07745717    -1.00986336
O       3.89204523    -0.87873777     3.12349481    -1.65954718     0.61014100    -0.57560568
O       0.02359220     2.82393725     3.27792381    -0.17231848     0.49607783    -0.21107376
O      -0.00864078    -1.02667880     3.28365279     0.50191938    -0.20845072    -1.11329837
O       5.62440702    -0.56580103     1.64747499     1.34010086    -1.54247298     0.42871001
O       5.58343902     2.82431402     1.71176701     2.29150683    -0.09805600     0.68525658
O       1.92162902     6.71054698     1.48651398     0.33454358     0.24811103    -0.13890416
O       1.94825601     2.64616402     1.65976799    -0.28553551     0.65580664     0.48131943
