# total energy = -19961.17927798 eV

CRYSTAL
PRIMVEC
        5.48888569     0.00000000     0.00000000
        0.00002732     5.28546892     0.00000000
        0.00000000     0.00000000     9.37954225
PRIMCOORD
24 1
Ti      1.98947328     3.13216394     3.47974336    -0.08559154     0.23455437    -0.45203713
Ti      3.49943973     2.15330487     5.89979921     0.08559154    -0.23455437     0.45203713
Ti      4.73382047     2.15330669     1.20999046    -0.08335751    -0.23487859     0.45211863
Ti      0.75509259     3.13216239     8.16955227     0.08335751     0.23487859    -0.45211863
Ti      1.98945968     0.48942959     1.21002809    -0.08555606     0.22093755     0.45192066
Ti      3.49945339     4.79603939     8.16951465     0.08555606    -0.22093755    -0.45192066
Ti      0.75507894     0.48942766     5.89976164     0.08307417     0.22071720     0.45274470
Ti      4.73383407     4.79604137     3.47978099    -0.08307417    -0.22071720    -0.45274470
O       1.73727661     1.86110339     4.78630874     0.40347874     0.00048774     0.22405630
O       3.75163645     3.42436542     4.59323383    -0.40347874    -0.00048774    -0.22405630
O       1.00721764     1.86112477     0.09656765    -0.40439174     0.00146322     0.22328419
O       4.48169548     3.42434410     9.28297471     0.40439174    -0.00146322    -0.22328419
O       3.75162279     0.78163091     0.09653724    -0.40459151    -0.00186636     0.22422702
O       1.73729027     4.50383791     9.28300512     0.40459151     0.00186636    -0.22422702
O       4.48168182     0.78160959     4.78633920     0.40370063    -0.00143570     0.22354645
O       1.00723113     4.50385928     4.59320342    -0.40370063     0.00143570    -0.22354645
O       0.19944062     3.21492183     2.53364842     0.20980261    -0.13491612     0.20150694
O       5.28947244     2.07054703     6.84589415    -0.20980261     0.13491612    -0.20150694
O       2.94388833     2.07049784     2.15615269     0.20866824     0.13562548    -0.20126732
O       2.54502468     3.21497103     7.22338978    -0.20866824    -0.13562548     0.20126732
O       0.19942696     0.57218732     2.15612270     0.20923260    -0.13585071    -0.20143752
O       5.28948605     4.71328155     7.22341971    -0.20923260     0.13585071     0.20143752
O       2.54501108     0.57223651     6.84592408    -0.20963472    -0.13537172    -0.20097678
O       2.94390199     4.71323230     2.53361849     0.20963472     0.13537172     0.20097678
