# total energy = -19961.00115463 eV

CRYSTAL
PRIMVEC
        7.60600008     0.00000000     0.00000000
        0.00000000     7.60600008     0.00000000
       -1.89786986    -1.89786986     4.85670466
PRIMCOORD
24 1
Ti      3.79527898     6.72250199     1.25840599     0.89863817     0.36741309    -0.13651534
Ti      3.85291802     2.92461899     1.16224602    -1.12260319    -0.20384870     0.24970383
Ti      0.05877799     6.52810503     1.17343801    -1.15333611     1.22100680     0.61210687
Ti     -0.00927600     2.82715502     1.26044697     1.70860770    -0.97410342    -1.77440328
Ti      5.72124625     2.71870824     3.59440779    -0.85505024    -0.40011291     0.53246821
Ti      5.63897622    -1.05550779     3.63278081     0.87168348     0.14935672     0.12741672
Ti      1.89645024     2.94529225     3.62036282     1.25229431     0.36303065    -0.21154505
Ti      1.86168324    -0.85791978     3.64000181    -0.56427328    -0.05624830     0.62862287
O       3.79287498     4.86059798     0.82647898    -0.31512969    -0.66003148    -0.27448902
O       3.72152299     1.03542398     0.93942800     0.60711687     0.07945509    -1.23026278
O       0.03379400     4.66339499     0.77439100     0.40795118     0.38755435     0.38182670
O       0.01123099     0.81343100     0.65069799     0.06659365    -0.19659613     1.58589738
O       5.67005121     4.58916423     4.04423983     0.51258714     0.46657364    -0.21080868
O       5.56176323     0.84994323     4.14834381     0.77773328     1.32780867    -0.85437173
O       1.81544321     4.86624525     3.99752279     0.17517858     0.11163426     0.69256700
O       1.90850421     1.08933423     3.99506979     0.16745164    -1.41370540     1.55985236
O       3.82768420     2.90460820     3.37085480     0.41087915    -0.05507228    -1.57306449
O       3.84719021    -0.78089576     3.25363680    -1.78578299    -0.67398923    -0.26526184
O       0.10493421     2.74337425     3.18050582    -1.89740439     0.18824827     0.59368877
O      -0.07247977    -0.88116177     3.18897980     0.81260080    -0.15412998    -0.03203056
O       5.64668798     6.53859099     1.63325298     0.60683302     0.21993739    -0.69965836
O       5.80802999     2.74176401     1.55912599    -2.31507357     0.19466189     1.11068612
O       1.89188000     6.82704699     1.78169699    -0.14080035    -0.77644747    -1.31039381
O       1.93498599     2.83202398     1.57793898     0.87330534     0.48760398     0.49796836
