# total energy = -4988.81677735 eV

CRYSTAL
PRIMVEC
        3.32653848     0.00000000     0.00000000
        0.00000000     3.85248640     0.00000000
        0.00000000    -0.00006078     4.63666156
PRIMCOORD
6 1
Ti      1.66326929     1.92621265     2.31833078     0.00000000     0.00000000     0.00000000
Ti      0.00000000     0.00000000     0.00000000     0.00000000     0.00000000     0.00000000
O       1.66326929     0.75078095     0.90361703     0.00000000    -0.30566340    -0.37315617
O       1.66326929     3.10164430     3.73304447     0.00000000     0.30566340     0.37315617
O       0.00000000     1.17540714     3.22194884    -0.00000000     0.30547854    -0.37320373
O       0.00000000     2.67701817     1.41471272    -0.00000000    -0.30547854     0.37320373
