# total energy = -19515.65243164 eV

CRYSTAL
PRIMVEC
        5.17600016     0.00000000     0.00000000
        0.00000000     5.50899976     0.00000000
        0.00000000     0.00000000     9.26300011
PRIMCOORD
23 1
Ti      1.90851400     3.19011002     3.43447402     0.53104921    -0.83721835     2.28815745
Ti      3.31740202     2.31025299     5.98047499     1.24118329    -0.07882645    -3.79723281
Ti      4.22776702     2.29470602     1.50568999     1.07430654    -0.64367000     0.29380444
Ti      0.80615402     3.34913498     7.78590500    -0.48765438     1.40957364     1.48184120
Ti      1.87063401     0.16121798     1.40306299     1.01374496    -1.38424569    -0.99449356
Ti      3.35244599     5.28539501     7.86499800     0.77783767    -2.38628981     1.92525176
Ti      0.75513599     0.52518799     5.93035000    -0.84700346     0.71506159    -3.30158308
Ti      4.67879400     4.84479098     3.48015498    -1.44941341    -0.12456460     3.05361500
O       1.77535898     1.77684401     4.57919501    -0.27413781    -0.81588693     2.05999767
O       3.60208102     3.34470899     4.31296398     0.93192497     0.46819960     1.32063554
O       4.73356300     2.97686900     9.20387799     0.43145904     0.19026145    -0.71590054
O       3.54686899     0.58355201     0.16427398     0.89210474     1.13984836     1.33549473
O       1.66215998     4.85252802     8.95440701    -1.08347870    -0.28057354     0.89366874
O       4.31846599     0.63389598     4.93482800     0.14391550    -0.03285408    -0.38351926
O       1.17246702     4.58906798     4.50415302    -0.79338539     1.17670694     0.57351177
O       0.31870901     3.47405600     2.51922799    -0.77145953    -1.54840554    -2.47924936
O       5.16152399     2.42413997     6.47203700    -0.05803085    -2.28677677     0.23012282
O       2.57132999     1.83020302     2.13377502    -1.18184914    -1.13281433    -1.05184821
O       2.51066897     3.65113702     6.99205298     0.50637021    -0.08457056     0.02721488
O       5.11087500     0.61288499     2.29986201     1.69086580     2.02512476    -2.34131040
O       5.02751800     4.68380901     6.88497602    -0.26691635     1.25162505     1.91641025
O       2.43639598     1.00454501     7.02068300    -2.34037477     1.14932005    -0.93112510
O       2.94453198     4.28146200     2.23514199     0.31894264     2.11097495    -1.40346392
