# total energy = -19515.43538484 eV

CRYSTAL
PRIMVEC
        5.17600016     0.00000000     0.00000000
        0.00000000     5.50899976     0.00000000
        0.00000000     0.00000000     9.26300011
PRIMCOORD
23 1
Ti      1.97272903     3.14683798     3.35218600    -0.32292348     0.19306986     2.97442808
Ti      3.23278298     2.22896797     6.02372597     1.02148758     0.58661386    -3.52233293
Ti      4.41806398     2.20410601     1.56678001     1.66324545    -1.73870324    -4.70781608
Ti      0.90231399     3.41739900     7.61485301    -1.65136618    -0.26118355     3.11796228
Ti      1.95666701     0.29057700     1.44872401     2.06874097    -1.10062025    -3.36238763
Ti      3.18898801     5.25277902     7.81165699    -0.44366073    -0.00237879     4.78024922
Ti      0.73400298     0.60935200     5.85987598    -1.51879414    -1.36719875    -2.88683313
Ti      4.55064500     4.82305100     3.45369702    -0.02525981     2.11503164     3.41784043
O       1.52053198     1.84943898     4.77694400     1.17463180     0.15738422    -0.58477243
O       3.48610198     3.29193499     4.44824698     0.46243622     1.21785129    -0.24754873
O       0.11378200     2.65815200     9.18617399    -0.28665420     0.07750336     0.58265436
O       3.35380598     0.86718202     0.10716702    -0.10599042     0.35747115     1.23963548
O       1.93807501     4.44453898     9.09204903    -0.32300010     0.28318578    -0.31145095
O       4.13889101     0.71112601     4.83288200     0.30901818    -1.42785393    -0.32913861
O       1.02197002     4.66337399     4.40173097    -0.33253426     0.45449562     0.82712137
O       0.10567903     3.27143102     2.69396899     1.52864250    -0.06726085    -0.79330183
O       5.04632199     2.15139001     6.50837597    -0.77036141     1.39955816     2.01252840
O       2.82598300     1.78127799     2.32099502    -1.80813951    -0.24464107     0.41373590
O       2.55136699     3.90873500     6.71652599    -0.76743113    -1.85769086    -0.73906285
O       0.31587701     0.70127199     2.17229600    -1.23470924    -0.31225108    -0.19031827
O       4.83837502     4.82442601     7.27965399     3.15104030    -0.06617174    -0.74862324
O       2.20102599     1.03647699     7.07663402    -1.36222675     1.56266232    -0.37393547
O       2.96501400     4.52222998     2.35657901    -0.42619187     0.04112738    -0.56863310
