# total energy = -4981.35841912 eV

CRYSTAL
PRIMVEC
        4.17282184     0.00000000     0.00000000
        0.00000000     2.48000186     0.00000000
        0.00000000    -0.00009900     5.65403670
PRIMCOORD
6 1
Ti      2.08641092     1.23995128     2.82701809     0.00000000     0.00000000     0.00000000
Ti      0.00000000     0.00000000     0.00000000     0.00000000     0.00000000     0.00000000
O       2.08641092     0.48329649     1.10188839     0.00000000    -0.75861610     0.86884524
O       2.08641092     1.99660607     4.55214780     0.00000000     0.75861610    -0.86884524
O       0.00000000     0.75661563     3.92890773     0.00000000     0.75832993     0.86817856
O       0.00000000     1.72328692     1.72512846     0.00000000    -0.75832993    -0.86817856
