# total energy = -19517.40147964 eV

CRYSTAL
PRIMVEC
        5.93400000     0.00000000     0.00000000
        0.00000000     9.29699974     0.00000000
        0.00000000     0.00000000     4.64899994
PRIMCOORD
23 1
Ti      4.50236101     6.90280798     2.29311399     0.45902025     0.96736250    -0.09370338
Ti      4.43985401     2.30745798     2.34364598     0.42876169     0.03044213     0.53791432
Ti      1.46531303     7.04480798     2.34501300     0.41154095     0.20645066    -0.26996850
Ti      1.43318398     2.39176999     2.31142501    -0.06142419    -0.70884415     0.13528713
Ti      2.96665201     4.62042898     0.07588301    -0.24986067    -0.15132696     0.22084319
Ti      3.01221402     0.02564700     4.61192002    -0.84114211    -1.15981710    -0.54551784
Ti      0.02383398     4.64846003     0.00634002    -0.09399494     0.13379203    -0.14408339
Ti      0.00433301     9.28078501     0.09368797     0.59985505     0.03433452    -1.25116945
O       4.36096602     5.63790199     0.84004502     0.37565194    -0.39873891    -0.39315961
O       4.38795400     0.89690802     0.79027500     0.59810849     0.14841981     1.03083817
O       1.51106802     5.60786801     0.96231899     0.22136615    -0.87558848    -0.92116798
O       1.47492902     0.95792301     0.99710499    -0.01517697    -0.62987140    -0.84998877
O       4.47428901     8.28805701     3.54222901    -0.72126104     0.90370813     1.98483993
O       4.49124300     3.69964299     3.64087902    -0.45709757     1.33145244     0.62592604
O       1.45806002     8.34548502     3.69102402     0.36418250     0.69933312     0.98258729
O       1.42421299     3.68123699     3.86243601     0.33058897     0.22303634    -1.41881624
O       2.97021899     1.55000599     3.26776498    -0.77845114    -0.85604372    -0.09970459
O       0.05399301     6.02992301     3.25719202    -0.35182603    -0.11383898    -0.35092717
O       5.83857500     1.25967199     3.25711598     0.61225034     1.43200292    -0.96652817
O       2.96665799     7.84328200     1.34847497     0.15206590    -0.04919371     0.46055545
O       3.01973400     3.31595901     1.26213299    -0.55508158    -1.54450569     1.85095868
O       0.08410801     7.80617000     1.44575998    -1.13421198     0.93393557    -1.22273510
O       5.83922700     3.28902701     1.37007901     0.70613626    -0.55650109     0.69771975
