# total energy = -19961.90003372 eV

CRYSTAL
PRIMVEC
        7.60600008     0.00000000     0.00000000
        0.00000000     7.60600008     0.00000000
       -1.89786986    -1.89786986     4.85670466
PRIMCOORD
24 1
Ti      3.80642900     6.74763400     1.15363498     0.88837021    -1.00421336    -0.04885843
Ti      3.82986801     2.81470702     1.16938801    -0.91943480     0.79751844     0.33188120
Ti     -0.02363501     6.63263097     1.23805399    -0.87294693    -0.24051599    -0.50988003
Ti     -0.05888399     2.80349000     1.28936699     0.53748597     0.51788182    -0.33585665
Ti      5.67749022     2.82807621     3.67990182    -0.56061871    -0.00312981     0.35618714
Ti      5.68244221    -0.94442280     3.65636979    -0.02118436    -0.01222740    -0.50459050
Ti      1.94005423     2.82101820     3.64426581     0.50122903     0.41606430     0.15076132
Ti      1.94553021    -0.94154778     3.53622480    -0.11220967    -0.30210756     0.63076203
O       3.92455401     4.77545701     0.82600801    -0.46968236     0.04584844    -0.70584856
O       3.87825302     0.95785099     0.74611701    -0.39079446     0.12665722    -0.15046744
O      -0.19645298     4.71337399     0.81774300     0.58114281     0.65939436     0.28645648
O      -0.06799499     0.97868501     0.72669398     0.21971370    -0.79633856     1.22392912
O       5.53241125     4.72829922     4.07312783     0.54895515     0.13097359     0.01278996
O       5.74393721     0.94174722     4.17422381     0.22468776     0.17157132    -0.82709488
O       2.10829820     4.81784024     3.98665783    -0.72196269    -0.86915943     0.51935120
O       1.87746924     0.93307724     4.01344680    -0.29984653     0.26616558     0.46225032
O       3.78432622     2.63635921     3.24369080     0.32234626     0.38504392    -0.08273376
O       3.79172825    -0.88570079     3.18058980     0.49685867     0.20857851    -0.14826966
O       0.00299525     2.90115220     3.23941479    -0.27685803    -0.08061286     0.20133159
O      -0.00612877    -1.01250976     3.15979181     0.00568780    -0.13173669     0.68876331
O       5.70455901     6.81708999     1.69030099    -0.15086005    -0.22824643    -0.43682365
O       5.61882500     2.82995601     1.70778299     1.44722334    -0.17616228    -0.19820410
O       1.90379702     6.70064703     1.60698198    -0.07418458    -0.00310512    -0.79100429
O       1.95366197     2.83373401     1.65446198    -0.90311755     0.12185825    -0.12483148
