# total energy = -4988.89548250 eV

CRYSTAL
PRIMVEC
        4.26713240     0.00000000     0.00000000
       -0.00000795     3.49128995     0.00000000
       -2.13359467    -1.74568487     5.00074343
PRIMCOORD
6 1
Ti     -0.00018520     2.61859758     1.25018599    -0.00202500    -0.00280662     4.53938459
Ti      2.13371498    -0.87299272     3.75055760     0.00202500     0.00280662    -4.53938459
O       0.00004402     0.87281514     0.81458030     0.00055587     0.00203246    -0.91085091
O       2.13348565     0.87278962     4.18616334    -0.00055587    -0.00203246     0.91085091
O      -0.00002064    -0.87280720     3.31495191    -0.00171107    -0.00019592    -0.91836934
O       2.13355021     2.61841195     1.68579168     0.00171107     0.00019592     0.91836934
