# total energy = -19518.23201567 eV

CRYSTAL
PRIMVEC
        7.60600008     0.00000000     0.00000000
        0.00000000     7.60600008     0.00000000
       -1.89786986    -1.89786986     4.85670466
PRIMCOORD
23 1
Ti      3.76831898     6.61243799     1.28506700     1.09612288    -0.49780381     0.23061338
Ti      3.67891999     2.72245201     1.11014899     0.50731715     1.24465479     2.11647634
Ti      0.07125700     6.73228399     1.17722401    -1.27121918    -0.08872109     1.44547011
Ti     -0.04533901     2.94585000     1.05425899    -0.40671473     0.06033096    -0.94383947
Ti      5.65751923     3.07245423     3.56357380    -1.34701327    -3.50401947    -0.49567134
Ti      5.74966222    -0.95858575     3.55272481     0.04323209     1.84734962     1.42904281
Ti      1.98934821     2.75073822     3.76742981     0.79202554     0.36827827    -0.42410311
Ti      1.93059223    -1.07146878     3.64022782    -0.08454305    -0.06580072     0.30140359
O       3.66604902     4.62713498     0.91901700    -0.18546402     0.67128135    -0.63762328
O       3.87506001     0.94580300     0.99820297    -0.24612280    -1.57737160    -0.92468937
O      -0.04772898     4.80677800     0.74943400     0.63997018     1.34179959     0.39708389
O      -0.12627598     1.13025699     0.65639300     0.16974327    -2.36830108     0.55269842
O       5.87797024     4.75542220     4.18170780     0.55273673     1.86471331    -1.57569139
O       5.80394522     1.10698123     3.88890684     0.41446198    -0.37824644     0.30657845
O       1.89301821     4.64393223     4.26465179    -0.44513063     0.81743704    -1.56164133
O       1.93833023     0.82680024     4.03416080    -0.56952939     0.06359575     0.39558417
O       3.78928620     2.80188220     3.44367879    -0.23859743     0.44878648    -1.31128572
O       3.80659924    -1.17891875     3.23107781    -0.51108073     0.02256504     0.67059383
O      -0.02265678    -0.97559176     3.22732383     1.87267577    -0.23653695     0.26087991
O       5.73663202     6.66362298     1.72798598    -0.20602154    -0.02660938    -2.19135487
O       5.70757098     2.98275303     1.53000801    -0.24355606     0.09186015     1.18621616
O       1.93636502     6.75116800     1.68435600    -1.08484036    -0.10872737     0.10708829
O       1.72053701     2.79696800     1.74365502     0.75154813     0.00948583     0.66617051
