# total energy = -19072.43492506 eV

CRYSTAL
PRIMVEC
        5.17600016     0.00000000     0.00000000
        0.00000000     5.50899976     0.00000000
        0.00000000     0.00000000     9.26300011
PRIMCOORD
22 1
Ti      2.14371900     3.44583900     3.28896298    -0.63935183     0.44196071     1.27807606
Ti      3.51226498     2.04919302     5.83310998    -1.08991700     1.97970749    -2.51869216
Ti      4.50940399     2.34344902     1.26911098     0.66847961    -0.02438435    -1.83566472
Ti      0.40357999     2.86707297     7.93778501     1.88705158     2.84666811     2.31995815
Ti      1.94615099     0.48869699     1.45079600     0.41012659     1.02408517    -2.02202041
Ti      2.80571302     5.15823700     7.98710798     2.86031373     1.34859682     1.54422596
Ti      0.68109801     0.20701800     6.06533000    -1.12515501    -0.48268263    -2.59904507
Ti      4.71713199     4.88427199     3.39703198    -0.82883861     0.39555460     0.91183513
O       3.73327702     3.56941999     4.63408699     0.08230773    -0.72668375    -0.28247641
O       1.07963198     2.09897003     0.17090901    -0.48915179    -0.76827676    -0.54977585
O       4.20765897     3.41207897     8.99379002    -0.72293097     1.70329888    -1.14456068
O       3.45126503     1.01101298     9.23436998    -0.03672179    -1.58823915     0.56205082
O       1.73951998     4.80836601     0.05782098    -1.87585057    -0.70596066     0.67249722
O       4.15524000     0.75514398     4.80229000     1.18441151    -0.88801025    -0.48608857
O       1.37343902     4.93371101     4.34976698    -1.72152415    -0.15044096    -0.20518491
O       0.40641802     3.69273199     2.24420299     0.44333908    -0.47412574     0.72833877
O       4.80341302     1.55672199     7.04289802     0.23908851    -1.53097346    -0.00862091
O       2.88284299     2.16372502     2.07591197    -1.35488445    -1.26933019     1.69562542
O       1.50312300     4.29579498     6.84082301    -0.07824924    -2.87962041     0.93297012
O       0.16494503     0.97249200     2.23541499     1.20084549    -1.73438276     0.64112461
O       2.16039697     1.10916700     6.76801198     0.02598821     0.94112207     0.73117367
O       3.07122898     4.60421499     2.27150398     0.96062286     2.54211723    -0.36574650
