# total energy = -19071.21565519 eV

CRYSTAL
PRIMVEC
        5.17600016     0.00000000     0.00000000
        0.00000000     5.50899976     0.00000000
        0.00000000     0.00000000     9.26300011
PRIMCOORD
22 1
Ti      2.00700997     3.36370402     3.23638800    -1.90892653     0.29026866     1.08069368
Ti      3.60182998     2.17889399     5.96949298    -0.21107788     1.03011338     0.60056390
Ti      4.51341701     2.44270700     1.56281700     1.80327935    -0.13440241    -0.38228102
Ti      1.02095998     2.41719701     7.61040501    -3.56339681    -4.35541746     2.66663837
Ti      1.93490402     0.81045999     1.29794998    -3.65971885    -1.73982065    -1.23234306
Ti      2.93132901     5.34825201     8.06009200     2.13982711     0.88269398    -0.59821545
Ti      0.48241603     5.31903698     6.15085001    -0.17992844     0.53959839    -2.06899165
Ti      4.31832698     5.15402697     3.36880201     0.60931131     1.03024759     1.79788338
O       3.35755599     3.45941002     4.42785799     1.44835668    -0.02146641     1.58590741
O       0.85966897     2.51332200     0.47070099     0.10819695     0.33247102    -1.36496112
O       5.07568699     3.72669099     6.91069901    -2.00281631    -0.12809781    -0.24040929
O       3.50257998     0.69963900     0.51206202     2.98432014    -0.14296393    -2.33897892
O       1.41903399     0.30324201     8.80214202    -1.84255245    -0.84166764    -0.05727443
O       4.28295402     0.84145898     4.97236302     0.59523529    -1.40878585    -1.23493833
O       1.09566599     4.64533698     4.47932497    -1.07537484     0.79955193     2.53384650
O       0.15625599     3.90801802     2.61477301    -0.06285013    -2.31457477    -2.70530984
O       4.55010799     1.08605000     7.42630101    -0.68365581    -0.40701375    -0.22729949
O       2.90796001     1.81717600     2.37093702     0.15713740     3.30684793     3.21728017
O       2.27701700     3.46497701     7.31811602     5.12203946     3.12902008    -0.46507417
O       0.21149098     1.11232698     2.43967101     0.12098176    -1.18226618     0.93147014
O       2.03294299     0.88336701     6.52206500     0.27572392     0.87083039    -0.11440256
O       2.73082603     4.76969400     2.37232998    -0.17411106     0.46483326    -1.38380397
