# total energy = -19074.81295087 eV

CRYSTAL
PRIMVEC
        7.60600008     0.00000000     0.00000000
        0.00000000     7.60600008     0.00000000
       -1.89786986    -1.89786986     4.85670466
PRIMCOORD
22 1
Ti      3.94800800     6.44419900     1.30945202     0.50586114    -0.07029681    -0.20646686
Ti      3.72383200     2.70467700     1.17683898     0.76357524    -0.03284611    -0.98617424
Ti      0.29839400     6.81218600     1.02066602    -0.92690232    -0.16994278     1.35598077
Ti      0.00136602     3.00309598     1.06288701    -0.59939148    -0.45397497     0.06931954
Ti      5.64984023     3.07050421     3.51428882    -0.22098306    -0.80741231    -0.21262825
Ti      6.04453825    -0.73501476     3.64748480    -0.10308096    -0.62508298    -0.46168700
Ti      1.81569721     2.81606420     3.58648881     0.21815921    -1.88192300     0.96951323
Ti      1.18866524    -1.25920378     3.93521281     2.20188585     1.86151100    -1.20646052
O       4.03670398     4.54741400     0.81842897    -0.85205053     1.57386950     0.09314982
O       3.99483198     0.80625102     0.69675102    -0.54262484     0.40624653     2.53027267
O       0.12193498     4.90090901     0.59955100     0.23079285     0.10955089     0.58894971
O       0.07551100     1.06892598     0.78125602     0.22021712     0.80197982     0.53747132
O       5.49946023     5.06238025     4.04392883     0.02071076    -1.56615233    -1.70560928
O       5.57768723     1.09602822     3.94530581     0.46674281    -0.39516070     0.44310871
O       2.11301423     4.64959321     4.31774181    -1.20809060    -1.09967306    -1.88602931
O       1.57303325     0.78178424     4.05459980    -0.30129741     0.25682245     0.37521331
O       3.68543025     2.70996221     3.14772282     1.23515070     0.46336798     0.17198398
O      -0.04272275     2.83412021     3.23481481     0.25485504     1.30366060    -0.15385950
O       5.91720598     6.62123001     1.77344198    -0.76320423     0.18242524     0.14212009
O       5.78228499     2.90579398     1.56904600    -0.59924852    -0.02798750     0.33356733
O       1.93792001     6.50439402     2.18673201     0.48366968    -0.27095992    -1.01146027
O       1.87172999     2.80258299     1.58973800    -0.48474620     0.44197845     0.21972476
