# total energy = -19071.72085871 eV

CRYSTAL
PRIMVEC
        5.17600016     0.00000000     0.00000000
        0.00000000     5.50899976     0.00000000
        0.00000000     0.00000000     9.26300011
PRIMCOORD
22 1
Ti      1.85675703     3.47762202     3.48171600     0.32500247     1.14234413    -0.73708978
Ti      3.71645998     2.26978199     6.04771802     1.44982736     1.07750011    -0.31814071
Ti      4.34360800     2.19627498     1.56970800    -0.55548293     2.16165193    -2.28073724
Ti      1.16287399     2.66861600     7.59683098    -3.30140773    -2.38057219     3.42616078
Ti      1.80971798     0.62587201     1.18571799    -0.25520394    -0.32546064    -1.28955887
Ti      3.06198700     5.39844299     7.92245099     0.97920603    -0.34146217     0.15368723
Ti      0.57660503     5.27671000     6.33810600    -1.38733770     2.09740749    -1.14987232
Ti      4.40625898     5.16852601     3.49644401     0.38404299    -2.80403406     2.28101749
O       3.54385797     3.15178198     4.37034002    -0.36963787     0.89693404     0.73090731
O       0.80389099     1.91656803     0.13133100    -0.17184977     0.05619379     1.15391153
O       4.56974502     3.98625899     7.33527898    -0.51201636     0.25813243    -0.66554213
O       3.41179401     1.09939902     0.13825502    -0.50448971     0.22041690     0.82655495
O       2.04948502     4.53287702     9.19101501    -0.26215852     0.45339416    -0.83643750
O       4.58428501     0.92835798     5.05995000    -0.88637040    -1.12107647    -0.76203001
O       1.10042700     4.94363203     4.42263998    -0.74256546    -0.76340632     0.58245561
O       0.19571398     3.88831400     2.38269698    -0.46857395    -2.21133389    -0.45455681
O       4.80795601     1.24530298     7.37084001     0.52316929    -0.15549806    -0.39554457
O       2.36041200     2.12667103     2.15976498     1.39265680    -0.53048948     0.97975599
O       1.76867097     3.89808901     6.49075199     3.23969506     0.63800046    -0.53828661
O       5.06739600     0.85614100     2.41343302     1.86777627     1.17581656    -0.87757877
O       2.19140200     1.34898399     6.53372298    -0.88379956    -1.43324219     0.62646854
O       2.80949701     4.67501102     2.49673801     0.13951762     1.88878322    -0.45554437
