# total energy = -4983.87284437 eV

CRYSTAL
PRIMVEC
        4.97451809     0.00000000     0.00000000
       -0.00000808     3.31634501     0.00000000
       -2.48728836    -1.65822311     5.51093007
PRIMCOORD
6 1
Ti     -0.00021380     2.48737923     1.37773223    -0.00491672    -0.00401966     7.18548524
Ti      2.48743551    -0.82925768     4.13319709     0.00491672     0.00401966    -7.18548524
O       0.00005235     0.82907724     0.89768534     0.00171467     0.00392428    -2.51484141
O       2.48716925     0.82904425     4.61324404    -0.00171467    -0.00392428     2.51484141
O      -0.00002132    -0.82908030     3.65315026    -0.00242532    -0.00013935    -2.31742356
O       2.48724286     2.48720174     1.85777917     0.00242532     0.00013935     2.31742356
