# total energy = -39032.95095465 eV

CRYSTAL
PRIMVEC
        7.60600008     0.00000000     0.00000000
        0.00000000     7.60600008     0.00000000
       -3.79573973    -3.79573973     9.71340985
PRIMCOORD
46 1
Ti      1.94348145     4.48104745     6.23444361     0.11079942     2.37939488    -0.31856906
Ti      3.72314000     6.87251999     1.42822601    -0.73755593    -2.20604487    -0.37839711
Ti      2.14072947     0.97760544     5.85694264    -1.41934563    -1.49872410     4.55608494
Ti      3.96652301     2.82393000     1.13630501    -3.01090973    -1.22442611     0.25095519
Ti     -1.84868056     4.92220643     6.14949664    -0.39465857     0.02119593     1.37446521
Ti     -0.07110301     6.68412399     1.16056001     0.99844380     1.25571414     0.24446084
Ti     -1.83880056     1.04877745     5.96563163     0.40512862    -1.90725660     1.06832281
Ti     -0.16078998     2.94828702     1.05645401     2.61486739    -0.92154054     2.00206658
Ti      3.82866942     1.04144247     8.51848063    -1.40032923     0.41298180    -1.50083138
Ti      5.68650502     2.98424901     3.88846503     1.07563246    -1.15396038    -1.66951740
Ti      3.71061644    -2.66417155     8.54934161     0.42402058    -1.64987777    -0.42783018
Ti      5.71838700    -0.96406898     3.61648898     0.32035572     1.48276988     2.33226243
Ti     -0.00328354     0.81728145     8.24784060     1.66745641     1.52414281    -1.14728605
Ti      1.88349201     2.72383501     3.37291499    -0.98493214     1.73966561    -1.16990997
Ti     -0.07481857    -3.05308354     8.59806365     0.45809979     0.07754116     0.08165801
Ti      1.76347901    -1.10394201     3.84004002     0.30813063    -0.78987507     1.47168611
O       1.87487643    -1.16129853     5.77540664    -0.46526289     0.72813489    -2.94465520
O       3.51967701     0.91542298     0.84768898     0.65376339     1.55660839    -0.26109614
O      -2.13111358     2.89674744     5.74831562     0.16224618     1.50159294    -0.45515151
O       0.06342300     4.82854301     0.81759197    -0.86804357    -0.54733536    -1.02673880
O      -1.90615757    -0.99699455     5.66859660     0.48337246     0.91902831     0.51429384
O       0.12676700     0.95050500     0.77378102    -0.18160145     0.10827665     0.35951595
O       3.48943347     2.98129647     8.88688161     0.77752117    -1.88729558     0.29174935
O       5.99148400     4.88930701     3.98682701    -0.66876681    -3.16987184     1.04768250
O       3.64043145    -0.87995954     8.86782662     0.73024936     1.85601270     0.16172322
O       5.83238299     0.99749499     4.19273200    -0.67989557     0.44114336    -1.90181358
O       0.24619543     2.54339345     9.17548361    -0.80013197     0.49555821    -0.22509502
O       1.95226299     4.37740099     4.25282399    -0.13614922     0.59803162    -0.72483179
O      -0.04313758    -0.82265154     9.00085861    -0.18931785     0.37188938    -1.39429228
O       1.77174200     1.07054902     4.15449402     0.56125120    -1.28734669    -3.53389519
O       1.93539647     0.81635243     7.85267161    -0.50687801     0.94531939     1.04291465
O       4.02677899     2.67442801     3.01674901    -0.67760035     0.99338747     1.73779153
O       1.86273747    -2.65953453     8.19326062    -0.98485937    -1.09665844     0.20118633
O       3.87203598    -0.92382902     3.38576399    -2.72914731     0.14745745    -0.26266862
O      -1.95970454     1.10082145     7.96219363     0.86515828    -0.01307972     0.70969930
O      -0.10474000     2.70217298     3.05719302    -0.53666322     0.93075280     0.42653846
O      -1.86840157    -2.61349653     8.21828764     0.26275347    -0.99034097    -0.79300924
O      -0.02593201    -0.79200599     3.27413802     2.35828971    -0.31382923    -0.39513345
O       3.79590446    -2.53331453     6.63634262     0.43176629    -1.89828088    -0.77014441
O       5.68384903     6.55423601     1.82775002    -0.05000515     0.14757521    -3.37551029
O       3.79126046     0.61840643     6.40662863     2.34550876     1.13244461    -0.01692249
O       5.67883301     2.59079001     1.14005301     0.82469167     0.46508625     0.34997406
O       0.03772843     4.67017047     6.60393761    -0.59795448    -0.97259058    -0.41823611
O       1.91067400     6.40875201     1.49191799     0.26585448     0.40967844     1.21000582
O       0.13094147     0.89498642     6.08746363    -2.09238998     0.68953104     2.58966492
O       1.84558498     2.91895902     1.45382797     1.00703720     0.19742017     1.08683322
