# total energy = -19935.48407366 eV

CRYSTAL
PRIMVEC
        5.96375866     0.00000000     0.00000000
        2.15555119     5.97001631     0.00000000
        0.00000000     0.00000000    10.84619063
PRIMCOORD
24 1
Ti      3.43895341     3.53782604     4.02385938     0.27569641    -2.48998424     0.85008004
Ti      4.68035666     2.43219011     6.82233136    -0.27569641     2.48998424    -0.85008004
Ti      6.02153112     2.43219214     1.39919269    -0.99994661    -0.85179111     0.29558698
Ti      2.09777899     3.53782419     9.44699818     0.99994661     0.85179111    -0.29558698
Ti      2.36117796     0.55281804     1.39923617     0.27569641    -2.48998424    -0.85008004
Ti      5.75813213     5.41719822     9.44695469    -0.27569641     2.48998424     0.85008004
Ti      1.02000342     0.55281585     6.82228788     0.99994661     0.85179111     0.29558698
Ti      7.09930669     5.41720048     4.02390287    -0.99994661    -0.85179111    -0.29558698
O       2.64657354     2.10214416     5.53472806     1.72138891     2.09790654    -0.84970054
O       5.47273653     3.86787199     5.31146269    -1.72138891    -2.09790654     0.84970054
O       1.85336189     2.10216824     0.11166764    -0.23468190    -0.54249963     1.28859727
O       6.26594825     3.86784795    10.73452281     0.23468190     0.54249963    -1.28859727
O       4.39496106     0.88286387     0.11163244    -1.72138891    -2.09790654    -0.84970054
O       3.72434901     5.08715228    10.73455800     1.72138891     2.09790654     0.84970054
O       5.18817277     0.88283978     5.53476325     0.23468190     0.54249963     1.28859727
O       2.93113724     5.08717638     5.31142749    -0.23468190    -0.54249963    -1.28859727
O       1.52780553     3.63130225     2.92982668     0.52990893     2.07665431     1.98861431
O       6.59150454     2.33871390     7.91636407    -0.52990893    -2.07665431    -1.98861431
O       4.04297110     2.33865829     2.49330317     0.95992455     1.63820007     0.85592082
O       4.07633897     3.63135786     8.35288740    -0.95992455    -1.63820007    -0.85592082
O       0.45003006     0.64629413     2.49326851     0.52990893     2.07665431    -1.98861431
O       7.66928001     5.32372202     8.35292205    -0.52990893    -2.07665431     1.98861431
O       2.99856351     0.64634974     7.91639860    -0.95992455    -1.63820007     0.85592082
O       5.12074657     5.32366641     2.92979209     0.95992455     1.63820007    -0.85592082
