# total energy = -4985.09325494 eV

CRYSTAL
PRIMVEC
        3.89839208     0.00000000     0.00000000
        0.00000000     4.07213062     0.00000000
        0.00000000    -0.00007117     5.30225294
PRIMCOORD
6 1
Ti      1.94919587     2.03602967     2.65112641     0.00000000     0.00000000     0.00000000
Ti      0.00000000     0.00000000     0.00000000     0.00000000     0.00000000     0.00000000
O       1.94919587     0.79358440     1.03333098     0.00000000     0.53197610     1.00345360
O       1.94919587     3.27847494     4.26892179     0.00000000    -0.53197610    -1.00345360
O       0.00000000     1.24241679     3.68445855     0.00000000    -0.53161229     1.00402413
O       0.00000000     2.82964254     1.61779427     0.00000000     0.53161229    -1.00402413
