# total energy = -4989.02158800 eV

CRYSTAL
PRIMVEC
        4.25287026     0.00000000     0.00000000
       -0.00000859     3.84783543     0.00000000
       -2.12646514    -1.92395634     5.18210648
PRIMCOORD
6 1
Ti     -0.00018591     2.88602115     1.29552637    -0.00164319    -0.00029568     1.60634049
Ti      2.12658210    -0.96214195     3.88657949     0.00164319     0.00029568    -1.60634049
O       0.00004321     0.96195161     0.84412271    -0.00017072    -0.00061989    -0.56774324
O       2.12635282     0.96192748     4.33798326     0.00017072     0.00061989     0.56774324
O      -0.00002181    -0.96193816     3.43517584    -0.00180980    -0.00043503    -1.13914568
O       2.12641784     2.88581719     1.74693013     0.00180980     0.00043503     1.13914568
