# total energy = -19075.75965194 eV

CRYSTAL
PRIMVEC
        7.60600008     0.00000000     0.00000000
        0.00000000     7.60600008     0.00000000
       -1.89786986    -1.89786986     4.85670466
PRIMCOORD
22 1
Ti      3.81399597     6.62708498     1.15700499     0.83508613    -0.49317839    -0.35233434
Ti      3.75508802     2.76487900     1.18547198     0.35346100     0.22546089     1.72750351
Ti      0.12295201     6.74403998     1.04018398    -0.87821460     0.47368968     0.47182486
Ti      0.00124801     2.94859098     1.12595298    -0.76979988    -0.50155608     0.96502716
Ti      5.62929921     2.91480423     3.58077280    -0.29799148    -0.66813946    -0.84654657
Ti      6.07245420    -0.87123679     3.63913083    -0.39480641     0.47051308    -0.78054170
Ti      1.83886523     2.74268520     3.73310779     0.21903622     0.00991263    -1.06191871
Ti      1.51745820    -0.95824575     3.79097883     0.10034557    -1.82343038    -1.18281716
O       3.99059899     4.59896698     0.76581801    -0.46923267     0.81033463     0.76255246
O       3.70937298     0.86230899     0.88299802    -0.30664710    -0.55065208     0.73603409
O      -0.08660499     4.88085499     0.59473400     0.45833016    -0.10778968     1.70993079
O       0.04921899     1.10161299     0.66767998     0.92890341    -2.20350410     1.68584006
O       5.50908422     4.93312521     3.95390382     0.79181445    -0.26531789    -0.87624771
O       5.44620325     0.92688221     4.18034279     0.66243649     0.93512008    -2.73565632
O       1.99564224     4.65738825     4.12670480    -0.65388911     0.91867273    -0.00923901
O       2.18326722     0.66093524     4.10599783    -0.47671407     2.16978382    -0.44873377
O       3.77710724     2.72783623     3.21782679    -0.08163153     0.33869977    -0.57975930
O       0.00642125     2.62306924     3.41379383    -0.38241651     0.46029603    -0.15451744
O       5.88435900     6.79506399     1.65289398    -0.83108035    -0.12508524     0.95731385
O       5.71360699     2.70993998     1.62294598     0.00919967     0.51479829     0.51338084
O       1.94108301     6.64365501     1.85730801    -0.10405927    -0.44306037    -0.02041739
O       1.78226400     3.00189898     1.71825202     1.28786991    -0.14556743    -0.48067871
