# total energy = -4986.65639740 eV

CRYSTAL
PRIMVEC
        4.25952600     0.00000000     0.00000000
       -0.00000948     4.25952600     0.00000000
       -2.12979640    -2.12980115     5.43610250
PRIMCOORD
6 1
Ti     -0.00018758     3.19480583     1.35902548    -0.00155835     0.00155835     0.00000000
Ti      2.12990757    -1.06508110     4.07707667     0.00155835    -0.00155835     0.00000000
O       0.00004255     1.06487426     0.88549662    -0.00032962    -0.00205303    -1.11402650
O       2.12967732     1.06485035     4.55060559     0.00032962     0.00205303     1.11402650
O      -0.00002406    -1.06485577     3.60354781    -0.00205303    -0.00032962    -1.11402650
O       2.12974387     3.19458033     1.83255440     0.00205303     0.00032962     1.11402650
