# total energy = -4971.31264367 eV

CRYSTAL
PRIMVEC
        5.21601755     0.00000000     0.00000000
       -0.00000739     2.80862518     0.00000000
       -2.60803774    -1.40437579     5.62704876
PRIMCOORD
6 1
Ti     -0.00022325     2.10656566     1.40676197    -0.00971466    -0.01481496    20.11821170
Ti      2.60819529    -0.70231610     4.22028635     0.00971466     0.01481496   -20.11821170
O       0.00005537     0.70214530     0.91660020     0.00890039     0.01144836   -13.38144249
O       2.60791656     0.70210415     4.71044823    -0.00890039    -0.01144836    13.38144249
O      -0.00002130    -0.70216433     3.73012458    -0.00201266    -0.00017021    -2.05053472
O       2.60799311     2.10641378     1.89692385     0.00201266     0.00017021     2.05053472
