# total energy = -19934.42442652 eV

CRYSTAL
PRIMVEC
        6.05752353     0.00000000     0.00000000
        0.32218370     6.43898140     0.00000000
        0.00000000     0.00000000    10.84502523
PRIMCOORD
24 1
Ti      2.38648661     3.81573425     4.02342701     0.00701192    -1.09862328     0.68801178
Ti      3.99322037     2.62324690     6.82159835    -0.00701192     1.09862328    -0.68801178
Ti      5.35548067     2.62324910     1.39904233     0.06026771     0.56136742    -0.53369565
Ti      1.02422638     3.81573230     9.44598315    -0.06026771    -0.56136742     0.53369565
Ti      2.22539489     0.59624380     1.39908579     0.00701192    -1.09862328    -0.68801178
Ti      4.15431209     5.84273754     9.44593969    -0.00701192     1.09862328     0.68801178
Ti      0.86313465     0.59624141     6.82155482    -0.06026771    -0.56136742    -0.53369565
Ti      5.51657240     5.84273993     4.02347053     0.06026771     0.56136742     0.53369565
O       2.03069071     2.26727471     5.53413337     1.44929051     1.42048514    -0.12780162
O       4.34901627     4.17170644     5.31089199    -1.44929051    -1.42048514     0.12780162
O       1.22500035     2.26730070     0.11165561    -1.22359642     1.02506399     0.20055461
O       5.15470668     4.17168052    10.73336944     1.22359642    -1.02506399    -0.20055461
O       4.18792454     0.95221580     0.11162044    -1.44929051    -1.42048514    -0.12780162
O       2.19178243     5.48676535    10.73340461     1.44929051     1.42048514     0.12780162
O       4.99361496     0.95218988     5.53416859     1.22359642    -1.02506399     0.20055461
O       1.38609196     5.48679140     5.31085676    -1.22359642     1.02506399    -0.20055461
O       0.41605422     3.91655335     2.92951192     0.43979713     0.06085366     0.55711790
O       5.96365282     2.52242780     7.91551349    -0.43979713    -0.06085366    -0.55711790
O       3.37506782     2.52236781     2.49303524     0.51576837     0.58646371    -0.09283588
O       3.00463922     3.91661334     8.35198993    -0.51576837    -0.58646371     0.09283588
O       0.25496250     0.69706271     2.49300063     0.43979713     0.06085366    -0.55711790
O       6.12474454     5.74191844     8.35202454    -0.43979713    -0.06085366     0.55711790
O       2.84354749     0.69712270     7.91554804    -0.51576837    -0.58646371    -0.09283588
O       3.53615955     5.74185845     2.92947725     0.51576837     0.58646371     0.09283588
