# total energy = -19517.08299338 eV

CRYSTAL
PRIMVEC
        5.93400000     0.00000000     0.00000000
        0.00000000     9.29699974     0.00000000
        0.00000000     0.00000000     4.64899994
PRIMCOORD
23 1
Ti      4.41275802     7.04914702     2.15290102    -0.47928697     1.51948705     0.20943751
Ti      4.49024000     2.32755301     2.22749199     0.40345766    -0.34556231     1.04680499
Ti      1.31154200     6.98679301     2.32718899    -0.01895187     0.52873573    -0.11207597
Ti      1.57278803     2.33135298     2.49353501    -0.68912892    -1.04999598    -0.31510346
Ti      2.94882499     4.58311198     0.21081803     1.04138561    -1.12815343    -0.72292146
Ti      2.99535200     0.14011799     4.64471700    -0.06469952    -1.25498394     0.80062100
Ti      5.92384001     4.58092298     0.13835202    -0.62798987    -1.01113503    -2.23038140
Ti      0.06795800     9.26250898     4.44868000    -1.02083992     0.08292171     0.73280427
O       4.52507103     5.51450903     0.89325300    -1.55481685     0.93961463     0.53102119
O       4.37608699     0.87426702     0.93562702     1.66670307     1.10764734     0.31535466
O       1.47816399     5.43783002     0.87636002     0.27027061     2.23766688     0.79756061
O       1.63558602     0.92875201     0.94649998    -1.95339275     0.19837894    -0.39160384
O       4.35813000     8.45325800     3.70095302     1.42333778    -1.16580288    -0.94904595
O       4.48196202     3.73585999     3.67432498    -0.23463099     0.10803060     0.74103797
O       1.47286301     8.35755502     3.64353602     0.15923671    -0.47416765     0.09066947
O       1.49707398     3.56702900     3.90514702     0.22886658     0.92493259    -0.51906016
O       3.03103299     1.44722802     3.34471799     0.08234167     1.23425365    -1.81493597
O       5.78481599     6.13938899     3.22070700     0.98214480    -0.15621797    -0.32737534
O       0.06600899     1.21347800     3.05030599    -0.52245170     1.10839656     0.55723334
O       2.93249098     7.92733302     1.25927501     0.23108081    -2.30521235     1.83047598
O       2.92873398     3.27835599     1.51965900     0.69403613     0.02604348    -0.36333352
O       5.92064299     7.89844100     1.34223598     0.10235771    -0.17467156    -0.38746873
O       0.04142098     3.31807000     1.48056201    -0.11903029    -0.95020552     0.48028456
