# total energy = -19514.75317392 eV

CRYSTAL
PRIMVEC
        5.93400000     0.00000000     0.00000000
        0.00000000     9.29699974     0.00000000
        0.00000000     0.00000000     4.64899994
PRIMCOORD
23 1
Ti      4.25248198     6.93188298     2.30537498     2.91328182     1.03370701    -1.79705934
Ti      4.50827901     2.40809902     2.28551998     2.10132148     0.17651041    -2.19668656
Ti      1.48812501     6.89491302     2.39723501    -2.75359414     1.27872141    -0.94964296
Ti      1.50475499     2.21098500     2.40924501    -1.27091579     0.69107962    -0.74917449
Ti      2.90833901     4.57621701     0.06308798     0.22286433     0.34183575     1.13298351
Ti      2.93279398     0.14657501     4.55978902     0.63454155    -1.10883750     1.61745126
Ti      5.86529999     4.65187698     4.56989303     0.32017137     1.71578314     1.87650568
Ti      5.90830601     9.17728800     4.55371798     0.79479564    -0.53520103     1.74087351
O       4.46826200     5.53164500     1.03701701    -1.57191058    -0.14255204    -0.49618401
O       4.74758900     0.81452100     0.91315800    -1.93021631     1.40624431     0.21984406
O       1.33571402     5.62387298     1.20585398     2.02947532    -2.01506711    -2.81696775
O       1.60425899     1.13242598     0.88705501     0.62564193    -0.92057277    -0.25523402
O       4.68899601     8.26549898     3.70660199    -2.50416953    -0.24252891    -0.81635898
O       4.52968900     3.83386298     3.70615298    -2.49552574    -0.27748384    -0.05626887
O       1.67700901     8.57445298     3.52744501     0.17505542     0.23160249     0.96348321
O       1.38109701     3.76755099     3.89655699     2.16071965    -0.71311167    -1.03679002
O       3.32203798     1.65785999     3.35016301    -3.30095084    -1.67340363     0.97390981
O       0.00753802     5.97850000     3.29227901     0.03114713     1.18025095     0.38389670
O       0.03030402     1.28517601     3.16388802     0.50356977     1.64066087    -0.39333831
O       2.90197798     7.99997202     1.24062198     0.88383761    -1.13447038     1.23981880
O       2.89409800     3.36707499     1.37889801     0.88748626    -1.20962067     1.21788420
O       5.85601298     7.69495801     1.37848800     0.53356144     1.32574176    -0.01221069
O       0.01592501     3.35284801     1.55423798     1.00981194    -1.04928842     0.20926525
