# total energy = -4987.63007666 eV

CRYSTAL
PRIMVEC
        3.03504922     0.00000000     0.00000000
        0.00000000     3.89083677     0.00000000
        0.00000000    -0.00005713     4.36682023
PRIMCOORD
6 1
Ti      1.51752461     1.94538977     2.18341022     0.00000000     0.00000000     0.00000000
Ti      0.00000000     0.00000000     0.00000000     0.00000000     0.00000000     0.00000000
O       1.51752461     0.75825563     0.85102900     0.00000000    -0.17624122    -0.39641926
O       1.51752461     3.13252390     3.51579143     0.00000000     0.17624122     0.39641926
O       0.00000000     1.18711102     3.03444000     0.00000000     0.17611755    -0.39646220
O       0.00000000     2.70366852     1.33238043     0.00000000    -0.17611755     0.39646220
