# total energy = -39034.55154149 eV

CRYSTAL
PRIMVEC
        5.93200024     0.00000000     0.00000000
        0.00000000     9.29399984     0.00000000
        0.00000000     0.00000000     9.29399984
PRIMCOORD
46 1
Ti      4.51986202     7.03734002     6.92788198     0.91508501    -1.12759036     0.73283538
Ti      4.51108302     6.99935499     2.32153901    -0.86645823    -0.10382016     0.56879611
Ti      4.43943898     2.32302500     6.89019900     1.40766819     0.02045545     0.67272142
Ti      4.23958598     2.40260198     2.12809298     0.38696917     0.67246611     1.48974915
Ti      1.65981202     6.94444401     6.88417400    -1.77985916    -0.50305400     0.21891743
Ti      1.49854700     7.00516102     2.38406501     0.71670221    -0.91066939    -0.29178561
Ti      1.55421602     2.39076699     6.99050799    -0.96717172    -0.47169810     0.32271805
Ti      1.18579499     1.98422201     2.48419000     1.06917282     1.59814638    -0.47112629
Ti      2.93299100     4.59543101     4.75797802     0.43378383     0.56411413    -3.35212918
Ti      2.94801302     4.84114801     9.13273900    -0.57271370    -0.57953972    -0.67271551
Ti      3.01116498     9.23927900     4.60444502     0.21792601     0.93309816    -0.48459245
Ti      2.84765799     9.16999498     9.10342300     0.89819851    -0.07811066     1.45716889
Ti      5.91364001     4.62337702     4.74717201     0.05884615    -0.22149291    -1.98200194
Ti      5.86587801     4.78087600     0.04943801     1.15716963    -0.73555741    -1.32196146
Ti      0.03654800     9.09432999     4.82280901    -0.13430111     0.87586796    -0.32400746
Ti      5.81529999     0.22441799     9.25769500     0.53004983    -0.48455157     0.70313295
O       4.61653503     5.45447000     5.75649199    -1.04578709     0.60281876    -1.06981842
O       4.42001601     5.69976202     0.70893400    -0.01115114    -0.12653766     1.66266233
O       4.51556600     0.95074101     5.49314201     0.30409065    -0.42932914    -0.58533114
O       4.48658201     0.87215401     1.02344902    -0.40194431     0.36687445    -0.49282538
O       1.50050299     5.48742499     5.59309201    -0.48505165     0.98008432     0.46144583
O       1.54581200     5.71986001     0.80806398    -0.25726005    -0.66151835     0.19993780
O       1.47479900     0.84487403     5.67723600     0.11318180     0.31191272    -0.95991221
O       1.56248399     0.84103098     0.78786798    -0.39364170     0.67546659     1.00039553
O       4.58626201     8.40502900     8.45452702    -0.92844112    -0.35652575    -0.50126554
O       4.55335899     8.09147602     3.91953800    -0.51167312     2.45108497     0.63899291
O       4.45274599     3.82400600     8.25583102    -0.03965800    -0.04314801     1.32308426
O       4.27817502     3.72103303     3.65064600     0.97992440    -0.17892442     0.06581872
O       1.57904100     8.21876802     8.28732098    -0.47426844     1.02893427     1.01297106
O       1.55488898     8.31918999     3.77282800    -0.61688115     1.14760821     1.00612266
O       1.52263001     3.72239899     8.53478299     0.48924640    -0.14259369    -0.82454101
O       1.46766098     3.75397600     3.75454900     0.03633202    -1.12027609    -0.26864079
O       3.11182798     6.07392299     7.71405601    -1.43257499    -0.54353809     0.98971825
O       3.04846102     6.06873901     3.30933598    -0.49205302    -0.22707195    -0.10276369
O       3.06170998     1.36417699     7.79518899    -0.23558487    -0.08653565     0.44100940
O       2.85495598     1.38265199     3.20991601     0.23225581     0.20783803    -0.44881733
O       0.00541798     6.10012202     7.87801000     0.56874109    -0.32083420     0.31270668
O       0.04129498     6.09602497     3.25626400     0.15663501    -1.34871097     0.13786800
O       0.03096301     1.56411899     7.94620401    -0.03221079    -0.70080508     0.02829526
O       2.98327802     7.99386399     6.04803998     0.37308572    -0.83288501     0.47427178
O       3.01356098     7.93222098     1.52842800     0.00370239     0.23546094    -0.92040719
O       3.06920403     3.27707501     6.06991198    -1.10943605    -0.55904957     0.46143348
O       5.93064100     7.94063299     6.21832800     1.60957751     0.29958479    -0.86976981
O       0.03245100     7.98725398     1.66436400     0.18693032     0.44785343    -1.47933772
O       0.09243901     3.22782999     6.02844301     0.08338733    -0.53533962     0.30021369
O       5.90316199     3.11132802     1.40825100    -0.14054015     0.01003810     0.74076286
