# total energy = -4983.88408077 eV

CRYSTAL
PRIMVEC
        4.16540505     0.00000000     0.00000000
        0.00000000     3.51430437     0.00000000
        0.00000000    -0.00007938     5.51696100
PRIMCOORD
6 1
Ti      2.08270241     1.75711243     2.75848067     0.00000000     0.00000000     0.00000000
Ti      0.00000000     0.00000000     0.00000000     0.00000000     0.00000000     0.00000000
O       2.08270241     0.68487068     1.07517450     0.00000000     0.23682723     1.73883746
O       2.08270241     2.82935425     4.44178679     0.00000000    -0.23682723    -1.73883746
O       0.00000000     1.07221012     3.83365622     0.00000000    -0.23575559     1.73695798
O       0.00000000     2.44201475     1.68330512     0.00000000     0.23575559    -1.73695798
