# total energy = -19960.38870312 eV

CRYSTAL
PRIMVEC
        7.60600008     0.00000000     0.00000000
        0.00000000     7.60600008     0.00000000
       -1.89786986    -1.89786986     4.85670466
PRIMCOORD
24 1
Ti      3.75871902     6.57327200     1.29318198    -0.65345434    -0.61911056    -1.58781003
Ti      3.76503401     2.86811699     1.18442902    -0.67738669     0.43093016     0.16037725
Ti      0.01187902     6.61494201     1.28168101     0.27218711     0.19318556    -0.71285121
Ti     -0.07992101     2.85520501     1.17542200     1.02930682     0.25486121     0.17667908
Ti      5.71801324     2.88312922     3.59091580     0.66981530     1.04918686     0.72756487
Ti      5.75500522    -0.94252877     3.65233481     1.81842933    -0.97220209     0.01696183
Ti      1.89832221     2.86161324     3.54655080    -0.98506301     0.56936252     0.88869931
Ti      2.05543620    -0.98667480     3.73691184    -2.61732460    -0.44489331    -0.22030608
O       3.51625900     4.67445797     0.79586999     1.09078629     2.19613506    -0.27798778
O       3.57437197     0.96708100     0.85188001     1.03163959    -0.73683704     0.06586757
O      -0.00107201     4.81746903     0.66212499    -0.62702519    -1.78775708     0.31880945
O       0.02616702     0.98591902     0.73256901    -0.46893160     0.42889256     0.48085869
O      -1.58293177     4.72306624     4.12070282    -0.86761728     0.27662766    -0.84847490
O       5.94409623     0.89106522     3.90717779    -1.43456168     1.13532810     0.62431139
O       1.73276423     4.72299522     4.07804182     0.73906748     0.02205930     1.17851982
O       1.83023022     0.91822323     4.10347683     0.96264169    -0.04104279    -0.94097577
O       3.74570925     2.98410724     3.17068583     0.82701107    -0.81161735     0.43006344
O       3.84505423     6.23821321     3.33779080     0.04447727     1.21243448    -1.05424653
O      -0.01242080     2.80276624     3.16416382    -1.03718829    -0.37754684    -0.66533310
O       0.05884620    -1.01721880     3.24424379    -0.39930635     0.08340276    -0.43620812
O       5.76630701     6.66749598     1.53432499    -2.25496347     0.08894092     0.78939761
O       5.64498598     3.07314502     1.53033801     0.28131299    -0.61934427     0.15105365
O       1.85046500     6.71861000     1.63911500     2.55819743    -0.07159676     1.25408971
O       1.76050699     3.20891201     1.69261900     0.69795012    -1.45939906    -0.51906041
