# total energy = -4988.53490252 eV

CRYSTAL
PRIMVEC
        3.59278877     0.00000000     0.00000000
        0.71143585     3.52164595     0.00000000
       -2.15214504    -1.76084975     4.60852826
PRIMCOORD
6 1
Ti      0.53345304     2.64136913     1.15213219     0.00075668    -0.00114440    -0.00129224
Ti      1.61862654    -0.88057294     3.45639622    -0.00075668     0.00114440     0.00129224
O       0.17789661     0.88040634     0.75069165     0.00026251     0.00113103     0.57598929
O       1.97418287     0.88038977     3.85783681    -0.00026251    -0.00113103    -0.57598929
O      -0.17787303    -0.88038705     3.05495568     0.00116831     0.00025865     0.57507243
O       2.32995239     2.64118306     1.55357273    -0.00116831    -0.00025865    -0.57507243
