# total energy = -19931.86899438 eV

CRYSTAL
PRIMVEC
        5.92190527     0.00000000     0.00000000
        2.96600077     5.56119122     0.00000000
        0.00000000     0.00000000    10.96793558
PRIMCOORD
24 1
Ti      3.90405517     3.29555677     4.06902589     1.14040886    -3.28088337     0.70092361
Ti      4.98385102     2.26563459     6.89890980    -1.14040886     3.28088337    -0.70092361
Ti      6.31561347     2.26563657     1.41489814    -2.77866704    -0.87108519     0.89937376
Ti      2.57229291     3.29555505     9.55303762     2.77866704     0.87108519    -0.89937376
Ti      2.42105501     0.51496135     1.41494213     1.14040886    -3.28088337    -0.70092361
Ti      6.46685129     5.04623023     9.55299368    -1.14040886     3.28088337     0.70092361
Ti      1.08929247     0.51495921     6.89886581     2.77866704     0.87108519     0.89937376
Ti      7.79861382     5.04623231     4.06906983    -2.77866704    -0.87108519    -0.89937376
O       2.91869976     1.95819001     5.59685359     1.56886922     2.02401224    -1.16969142
O       5.96920651     3.60300140     5.37108210    -1.56886922    -2.02401224     1.16969142
O       2.13105815     1.95821240     0.11292105     0.82500046    -1.26951454     1.41163977
O       6.75684818     3.60297905    10.85501429    -0.82500046     1.26951454    -1.41163977
O       4.48620624     0.82240576     0.11288545    -1.56886922    -2.02401224    -1.16969142
O       4.40170001     4.73878559    10.85504989     1.56886922     2.02401224     1.16969142
O       5.27384791     0.82238341     5.59688913    -0.82500046     1.26951454     1.41163977
O       3.61405830     4.73880801     5.37104650     0.82500046    -1.26951454    -1.41163977
O       2.01924629     3.38263171     2.96271303     0.67899517     2.53650245     2.38673255
O       6.86865997     2.17855970     8.00522261    -0.67899517    -2.53650245    -2.38673255
O       4.33800438     2.17850776     2.52128965     1.07002874     1.55283067     1.11995033
O       4.54990189     3.38268365     8.44664581    -1.07002874    -1.55283067    -1.11995033
O       0.53624602     0.60203607     2.52125464     0.67899517     2.53650245    -2.38673255
O       8.35166023     4.95915528     8.44668081    -0.67899517    -2.53650245     2.38673255
O       3.06690162     0.60208801     8.00525756    -1.07002874    -1.55283067     1.11995033
O       5.82100463     4.95910334     2.96267802     1.07002874     1.55283067    -1.11995033
