# total energy = -4983.80665074 eV

CRYSTAL
PRIMVEC
        4.86042364     0.00000000     0.00000000
       -0.00000789     3.24028205     0.00000000
       -2.43024046    -1.62019047     5.38453259
PRIMCOORD
6 1
Ti     -0.00020889     2.43032925     1.34613287    -0.00439093    -0.00890091     8.53819788
Ti      2.43038424    -0.81023801     4.03839899     0.00439093     0.00890091    -8.53819788
O       0.00005115     0.81006171     0.87709623     0.00239344     0.00211576    -3.31532280
O       2.43012408     0.81002947     4.50743569    -0.00239344    -0.00211576     3.31532280
O      -0.00002083    -0.81006470     3.56936241    -0.00235410    -0.00015170    -2.14646622
O       2.43019600     2.43015583     1.81516956     0.00235410     0.00015170     2.14646622
