# total energy = -39036.58867150 eV

CRYSTAL
PRIMVEC
        7.60600008     0.00000000     0.00000000
        0.00000000     7.60600008     0.00000000
       -3.79573973    -3.79573973     9.71340985
PRIMCOORD
46 1
Ti      1.89154345     4.77083147     6.13757264    -0.22201561    -0.15559037     1.01497600
Ti      3.71748399     6.93876398     1.17799301    -0.44785034    -0.45203430     0.34799509
Ti      2.01968747     0.66195444     6.07300365     0.66186776     0.81143866     0.53226586
Ti      3.71308103     2.80277699     1.28416502    -0.36596222    -0.18890185    -1.31079979
Ti     -1.92235156     4.72284345     6.05988164     0.44661441     0.46780854    -0.31546548
Ti     -0.10123298     6.75251402     1.15810902     0.76863826    -0.39893046     0.32090208
Ti     -1.84880354     0.94053647     6.10735461    -0.73372447    -1.04119664     0.01338645
Ti     -0.13159702     2.83758002     1.21830198     1.29799697     0.47554756    -0.32233444
Ti      3.87751947     1.02498744     8.51390462    -0.34088778     0.47289649     0.04881370
Ti      5.71676602     2.83765702     3.62886998    -0.09861367     0.53206249     0.47879332
Ti      3.91801645    -2.68722457     8.49970161    -0.25300796    -1.27038923    -1.02651100
Ti      5.66377897    -0.85205999     3.64330398    -0.19648301    -0.98555794     0.86672305
Ti      0.08616747     0.94271646     8.30749861     0.18345728     0.66171864     3.01542716
Ti      1.86757801     2.67016400     3.52283202     0.06149335     0.32004770     1.38996100
Ti      0.04119444    -2.69898755     8.47155864     0.39607936    -0.55070402     0.21449565
Ti      1.85134000    -1.20219800     3.71256000     0.49394047     0.99220708    -1.12380441
O       1.63412745    -1.06275154     5.59810961    -0.21610182    -0.64322906     0.07675286
O       3.44288000     1.06351800     0.64058002     0.89356487    -0.61874572     0.78918627
O      -1.92051156     2.76233842     5.68804662    -0.29173547     1.15021839    -0.52992358
O       0.07128801     4.83417600     0.74280902    -0.69188515    -0.43344830     0.11039833
O      -1.77047256    -0.94068352     5.65184963     0.35110972    -0.67214575     0.14055815
O       0.08320899     0.98451099     0.74654898    -0.33246742     0.71425118     0.50839444
O       3.58382043     3.04009346     8.82548562     0.45990599    -1.69542282     0.35770949
O       5.74332998     4.73786500     4.08549301    -0.31669138    -0.64034762    -0.45920999
O       3.95594343    -0.89470352     8.90336363     0.15248756     0.55478050     0.68647066
O       5.78646501     0.96801299     4.08924001     0.00627786     0.38969145    -0.30858674
O       0.18935147     2.79136745     9.08790160     0.10445702    -0.82667039    -0.38288831
O       2.05642899     4.57987601     4.23595699    -0.33796495    -0.89348053    -1.39889275
O      -0.14755055    -0.87271055     8.85873361     0.29908549     1.53726675     0.26673303
O       1.84197599     0.91988998     4.18135500     0.06791726     0.38925668    -0.29959714
O       2.03284843     0.77161944     8.09793564    -0.67310657     0.64509542     0.04148631
O       3.66895003     2.71928901     3.14732302     2.96835718     0.49103975     1.30067066
O       1.87440144    -2.58353557     8.10510361     1.14832760    -0.18628935     0.23231571
O       3.75876802    -0.88552500     3.39930601    -0.80186027    -0.41482682    -0.41695878
O      -1.85895057     1.18780443     8.03996565    -0.46345463    -0.05588809     0.15540576
O       0.06580197     2.95208800     3.20233899    -2.58669015     0.01424109    -0.37350815
O      -1.77968956    -2.96304657     8.00789063    -2.49976626     0.29479226     0.44193886
O       0.01111902    -0.93374702     3.14175603    -0.09191646    -0.42255402    -0.07239741
O       3.80844745     4.89211546     6.47725564     0.27038759    -0.55202454     0.18453123
O       5.54090201    -0.67930298     1.74703599     1.61908185    -0.40735134    -1.10838730
O       3.83046445     0.45366344     6.45644861     0.59321980     1.53000492     0.06816280
O       5.63048902     2.59114397     1.62739499     0.63662595     0.82076482     0.04637783
O       0.03748543     4.56666944     6.58315761     0.39346738    -0.37392724    -1.68558449
O       1.91014598     6.71177901     1.49729301    -0.71763141    -0.84976919     0.90199809
O       0.09319145     0.85063946     6.56974662    -0.27165335     0.39864558    -2.66069938
O       1.88862699     2.68611801     1.63047501    -1.32289040     1.06564989    -0.75728144
