# total energy = -19070.45598159 eV

CRYSTAL
PRIMVEC
        5.17600016     0.00000000     0.00000000
        0.00000000     5.50899976     0.00000000
        0.00000000     0.00000000     9.26300011
PRIMCOORD
22 1
Ti      1.95494798     3.51614401     3.28462901     1.43788869     0.77623382     1.34060351
Ti      3.74227499     2.45845098     6.07494202    -4.33170108    -3.49362990    -2.91764293
Ti      4.45983897     2.38194502     1.58536101    -0.80595629    -4.25399794    -1.57606111
Ti      0.96557401     2.31266402     7.84053102     0.93711937     2.90300203    -1.44040220
Ti      1.83838002     0.55443102     1.36025398     1.11716119     1.60810247    -0.91478985
Ti      3.10767098     5.49786698     7.91542299    -0.45517285     0.49474857     0.45376568
Ti      0.30977999     5.36810002     6.07173801     1.85994443    -1.29564416     2.18294144
Ti      4.49019798     5.04022100     3.53615400    -1.01969398     0.47028940    -0.75285605
O       3.46953101     2.95696199     4.30064500     0.17489344     2.49083862     0.93133053
O       0.64670598     1.95374998     0.25569501     1.29824920     0.99209986     0.11358829
O       4.54054703     3.70215701     6.85885298     2.73134509     4.76134698     2.58754504
O       3.50878501     1.14672202     0.27086599    -1.00963916    -0.28141789    -1.54869068
O       1.92344299     4.92493101     0.05062898    -0.66813149    -1.72186611    -1.22675836
O       4.42801902     0.87987302     4.98025099    -1.32518768     0.21895985    -0.59883303
O       0.88023402     4.91609698     4.30219099     4.19782626    -2.07109353     1.54564392
O       0.40167099     3.52103101     2.35362800    -1.24847982     1.35916483    -0.01295965
O       4.72998301     1.29201398     7.32460701    -0.73881371    -2.22216672     0.23492872
O       2.72299500     2.21721902     2.19703202    -1.39448974    -0.34278191    -0.37062003
O       1.90620298     4.04996098     6.89359198     0.28355139    -0.26079069     0.18640119
O       0.11764399     0.63474599     2.12240099    -0.94560761     0.72482485     1.58874180
O       2.13171599     1.28675100     6.71936302     0.36514204    -0.29606084     0.02333663
O       2.87733002     4.97163799     2.51323802    -0.46024769    -0.56016183     0.17078688
