# total energy = -4990.16875012 eV

CRYSTAL
PRIMVEC
        3.93748818     0.00000000     0.00000000
        0.19674302     3.93256982     0.00000000
       -2.06715056    -1.96631816     5.02668275
PRIMCOORD
6 1
Ti      0.14739820     2.94957669     1.25667055    -0.00003137     0.00003137     0.00000000
Ti      1.91968194    -0.98332551     3.77001193     0.00003137    -0.00003137     0.00000000
O       0.04922718     0.98313602     0.81880552    -0.00031110    -0.00094591    -0.49454673
O       2.01785280     0.98311505     4.20787701     0.00031110     0.00094591     0.49454673
O      -0.04920776    -0.98311755     3.33214689    -0.00094591    -0.00031110    -0.49454673
O       2.11628773     2.94936857     1.69453569     0.00094591     0.00031110     0.49454673
