# total energy = -19936.61867160 eV

CRYSTAL
PRIMVEC
        4.63229849     0.00000000     0.00000000
        0.00002539     4.93016642     0.00000000
        0.00000000     0.00000000     8.29079572
PRIMCOORD
24 1
Ti      1.67900045     2.92161206     3.07582614    -0.09821438     1.21098592    -1.54339883
Ti      2.95332343     2.00855441     5.21496982     0.09821438    -1.21098592     1.54339883
Ti      3.99506860     2.00855610     1.06953871    -0.09340641    -1.21083937     1.53886341
Ti      0.63725528     2.92161056     7.22125734     0.09340641     1.21083937    -1.53886341
Ti      1.67898785     0.45652894     1.06957196    -0.09772510     1.21058920     1.53828799
Ti      2.95333603     4.47363767     7.22122409     0.09772510    -1.21058920    -1.53828799
Ti      0.63724268     0.45652711     5.21493657     0.09383039     1.20992792     1.54406346
Ti      3.99508120     4.47363950     3.07585939    -0.09383039    -1.20992792    -1.54406346
O       1.46616066     1.73599546     4.23072968    -2.75681265    -2.38328959    -0.37983744
O       3.16616322     3.19417106     4.06006627     2.75681265     2.38328959     0.37983744
O       0.85003355     1.73601531     0.08535839     2.75580118    -2.38428023    -0.37809320
O       3.78229038     3.19415121     8.20543733    -2.75580118     2.38428023     0.37809320
O       3.16615062     0.72908780     0.08533149     2.75639382     2.38381461    -0.37916407
O       1.46617326     4.20107867     8.20546423    -2.75639382    -2.38381461     0.37916407
O       3.78227778     0.72906795     4.23075658    -2.75641850     2.38382001    -0.37898846
O       0.85004606     4.20109857     4.06003937     2.75641850    -2.38382001     0.37898846
O       0.16831754     2.99880671     2.23955081    -0.99113210     0.58808787    -0.67205731
O       4.46400634     1.93135977     6.05124514     0.99113210    -0.58808787     0.67205731
O       2.48447050     1.93131382     1.90587352    -0.99108607    -0.58965470     0.67063291
O       2.14785338     2.99885265     6.38492229     0.99108607     0.58965470    -0.67063291
O       0.16830494     0.53372345     1.90584705    -0.99067444     0.58892374     0.66990966
O       4.46401894     4.39644302     6.38494877     0.99067444    -0.58892374    -0.66990966
O       2.14784078     0.53376939     6.05127157     0.99121926     0.58848922     0.67225168
O       2.48448310     4.39639708     2.23952434    -0.99121926    -0.58848922    -0.67225168
