# total energy = -19076.21868493 eV

CRYSTAL
PRIMVEC
        5.17600016     0.00000000     0.00000000
        0.00000000     5.50899976     0.00000000
        0.00000000     0.00000000     9.26300011
PRIMCOORD
22 1
Ti      1.88857402     3.23623898     3.41513799     0.02586402     1.18775291    -0.76845520
Ti      3.30579002     2.23772501     5.85620698     0.24149095     0.69322649     0.51812684
Ti      4.46712400     2.24983100     1.22298599     0.82182103     0.15508797    -1.03998847
Ti      0.69677700     3.29595801     8.06192301     0.41825179    -0.39115981     0.98129480
Ti      1.87674802     0.53098201     1.22591699     0.00216898    -0.39003932    -0.81732212
Ti      3.31130299     5.00113798     8.05958701    -0.88802259     0.01827669     1.31309784
Ti      0.71914903     0.51723203     5.84150897    -0.12415245     0.15805117    -0.65847776
Ti      4.46435201     4.97422699     3.46777901    -0.17721489    -0.39605622    -0.85291263
O       3.44699203     3.58095801     4.47890502     0.13028402    -0.86415529     1.26765563
O       0.92020198     1.92534099     0.04227698    -0.21286711    -0.21410638     0.75016411
O       4.24359101     3.62291002     9.15641402    -0.35257885     0.36095191    -0.13921218
O       3.50904700     0.83118199     0.16079199     0.23705863    -0.36710893    -1.17684552
O       1.68020101     4.65687299     9.06783297    -0.15396183     0.93971104     0.84584080
O       4.24194500     0.81311201     4.67895699     0.27565167     0.64578911     0.87310325
O       0.95066402     4.65151401     4.49764398    -0.08922837     0.69980183     1.25032587
O       0.15973898     3.35713498     2.55407098    -0.12808367    -0.60389502    -0.49343576
O       5.00480201     2.21995000     6.74599201     0.20475193    -1.29146457    -1.01458391
O       2.78238101     2.13066499     2.15327102    -0.54954342    -0.19928422     0.36141316
O       2.35558300     3.28622300     7.16970302     1.07146599     0.21605116    -1.34848729
O       0.17094097     0.60451098     2.07200501     0.02411490    -0.16157332     0.66614197
O       2.44252200     0.61093498     6.71407903    -0.38129783     0.03019248    -0.55387393
O       2.79161600     4.89844600     2.46379498    -0.39597292    -0.22604942     0.03643075
