# total energy = -19073.29935370 eV

CRYSTAL
PRIMVEC
        5.17600016     0.00000000     0.00000000
        0.00000000     5.50899976     0.00000000
        0.00000000     0.00000000     9.26300011
PRIMCOORD
22 1
Ti      1.76941198     3.41183201     3.21921599     0.26954761     0.28318989    -0.20612927
Ti      3.73497298     2.33709201     5.95479101    -2.77225290    -0.23162460    -0.44130997
Ti      4.31370001     2.16383001     1.20405398     0.71820785     1.26745406    -0.98370572
Ti      0.81865102     3.24259303     8.20159897    -0.36661451     0.17645128     0.11195050
Ti      1.77313702     0.46331802     1.33763002    -0.17082339     0.60491446    -1.32475651
Ti      3.18408401     5.13509402     8.00437599     1.23795578    -1.39427248    -0.21595680
Ti      0.56548701     0.16113500     6.06005600     1.41932198     1.97196101    -2.28855134
Ti      4.34353201     4.98792199     3.44976100     1.62282898    -0.31764937     0.85881408
O       3.35313302     3.44648698     4.34394498     0.81275661    -0.40377159     2.07445473
O       1.02099998     2.03966503     0.29170901    -0.92442172    -0.49257495    -0.50644966
O       4.27624802     3.73559101     9.00543202     1.20023408    -0.50184507     0.72706608
O       3.36455600     0.88238698     0.17829802     0.90467975     0.11864000    -1.40243959
O       1.64213702     4.82155200     8.96936701    -1.87029338     0.55832246     1.07488427
O       4.50903198     0.94980199     4.68142301    -0.61662841    -0.60781338     0.50681296
O       1.02363201     4.77734898     4.26381997    -0.97873398    -0.63190591     1.86790534
O       0.09719801     3.57993802     2.23904600     0.22411929    -0.59030596     1.08609043
O       0.23131899     2.25389598     6.50705298     1.35005849    -0.48442224     1.54186517
O       2.74115498     1.87913202     2.26707001    -0.54611151     0.76978060     0.97666347
O       2.60763600     3.21593900     7.52567002    -0.06235416    -0.14994114    -3.13177708
O       0.02620602     0.68534100     2.05027302     0.28253863    -0.21152114     0.68438626
O       2.49152800     0.61402299     6.39025102    -0.51096940    -0.20790282     0.93405050
O       2.81812302     4.72905700     2.40334400    -1.22304543     0.47483691    -1.94386733
