# total energy = -78964.51510429 eV

CRYSTAL
PRIMVEC
       10.35150501     0.00002646     0.00000000
        0.00002858    11.01713167     0.00000000
        0.00000000     0.00000000     9.26345890
PRIMCOORD
94 1
Ti      7.15586099     8.69002344     3.30842810     0.02314534    -0.01236855    -0.17230897
Ti      7.03451223     3.27770717     3.42309169    -0.00007482     0.12798596     0.00433745
Ti      1.85781504     8.75680688     3.44819936    -0.07654845     0.07673717     0.11296943
Ti      1.84422271     3.36116876     3.50624592     0.07265863     0.00593591    -0.13750265
Ti      8.38720344     7.73038074     5.79260665     0.02932756    -0.20606525    -0.03806237
Ti      8.49955055     2.23707237     5.82507635     0.06978516    -0.01513866     0.00983010
Ti      3.31230174     7.73463918     5.81736312     0.16631547    -0.21051841    -0.03921988
Ti      3.27058845     2.19534011     5.77618682    -0.00074331    -0.00701346     0.14037560
Ti      9.72818273     7.73040160     1.16104415    -0.02972402    -0.20486558    -0.03876377
Ti      9.61541268     2.23718932     1.19329209    -0.06932005    -0.01504893     0.00966401
Ti      4.45133369     7.73451761     1.18560272    -0.16608150    -0.20932361    -0.03880927
Ti      4.49282307     2.19537058     1.14446944     0.00317968    -0.00758039     0.14086462
Ti      5.90600818     8.75666152     8.07988266     0.07642016     0.07780264     0.11218113
Ti      5.91958093     3.36117827     8.13809015    -0.07350195     0.00624650    -0.13770448
Ti      0.60755174     8.69010973     7.94012760    -0.02046419    -0.01336203    -0.17192305
Ti      0.72934180     3.27770158     8.05474150    -0.00058493     0.12810192     0.00468507
Ti      7.04633820     6.01693619     1.18190683     0.01536852     0.18350844     0.01160725
Ti      7.06723889     0.52799847     1.18575650    -0.18643976     0.04458346     0.02704287
Ti      1.89208882     6.02276281     1.20261325     0.02677651    -0.02051535     0.05801542
Ti      1.89502345     0.78999673     1.31534087     0.16828982     0.24797296     0.09158941
Ti      8.46948221    10.49503543     8.07391533    -0.00653780    -0.03697916     0.06514972
Ti      8.50648311     4.97858614     8.05829127     0.07415784    -0.03396994     0.00139071
Ti      3.45083505    10.48674938     7.92554061     0.14756775    -0.05318997     0.13812563
Ti      3.28979324     4.98363233     8.06082427    -0.01872587    -0.12872876     0.04624722
Ti      5.87166682     6.02264242     5.83437010    -0.02791062    -0.01951134     0.05737830
Ti      5.86820718     0.79008216     5.94709331    -0.16705286     0.24833472     0.09238723
Ti      0.71766934     6.01680030     5.81362977    -0.01605937     0.18418336     0.01159851
Ti      0.69638753     0.52786712     5.81752943     0.18650378     0.04515424     0.02656773
Ti      9.64535268    10.49500346     3.44222928     0.00922435    -0.03659658     0.06492604
Ti      9.60860920     4.97856914     3.42661972    -0.07346262    -0.03445614     0.00178692
Ti      4.31270156    10.48686219     3.29366883    -0.14759886    -0.05396413     0.13824930
Ti      4.47381936     4.98365656     3.42907425     0.01801650    -0.12890410     0.04649662
O       6.77208554     7.50269339     4.75880618    -0.02184616    -0.05475089    -0.13704551
O       6.83515161     1.86116588     4.68813535     0.00689442     0.09885638    -0.03596178
O       1.64488871     7.44185984     4.75084216    -0.01690655    -0.03809836    -0.02720305
O       1.64588742     1.91613290     4.72385961     0.03529123    -0.03898694     0.00965681
O       8.62600850     9.14069459     4.57152343     0.00476374    -0.04287213    -0.07929311
O       8.70508917     3.57420368     4.53076540     0.01833943     0.02171657    -0.03803820
O       3.55766075     9.11278598     4.56314058    -0.19281841     0.02015180    -0.08910856
O       3.56025132     3.55216448     4.53482099     0.02045108     0.04991259     0.00022600
O       6.11885491     7.44190122     0.11911782     0.01700374    -0.03828888    -0.02710021
O       6.11779388     1.91617402     0.09219621    -0.03621426    -0.03867429     0.01008644
O       0.99157808     7.50273087     0.12708165     0.02211252    -0.05501803    -0.13716892
O       0.92852018     1.86123152     0.05637712    -0.00731428     0.09816398    -0.03541644
O       9.48914267     9.14069668     9.20330832    -0.00572739    -0.04295261    -0.07919592
O       9.41011793     3.57421593     9.16248961    -0.01954425     0.02198937    -0.03785899
O       4.20603802     9.11279369     9.19488619     0.19340796     0.01894878    -0.08887381
O       4.20341217     3.55213629     9.16655356    -0.01949694     0.04961742     0.00059007
O       8.71693855     6.33269528     0.07975430     0.00810952     0.03771475    -0.05329307
O       8.69036961     0.82655498     0.09792875    -0.01138382     0.01812988    -0.01753956
O       3.54867720     6.33945312     0.10655498     0.01667078     0.04727181    -0.01896626
O       3.42010215     0.71808185     0.08418806    -0.17241901    -0.07812171    -0.01556341
O       6.81948056    10.18997003     9.17353444     0.06279382    -0.06502451     0.01348416
O       6.81536838     4.67484260     9.17629919     0.05031754     0.01672272     0.08666832
O       1.63959543     4.68527474     9.16743803     0.03866324    -0.01173272    -0.00250785
O       9.39827882     6.33269707     4.71147402    -0.00921047     0.03757643    -0.05392094
O       9.42480415     0.82656065     4.72963870     0.00980336     0.01800724    -0.01762235
O       4.21504728     6.33944549     4.73830647    -0.01620310     0.04718902    -0.01863973
O       4.34342156     0.71817834     4.71589175     0.17277023    -0.07842767    -0.01622598
O       6.12419433     4.68532522     4.53567653    -0.03870849    -0.01179880    -0.00249063
O       0.94426363    10.18999957     4.54176066    -0.06325045    -0.06558090     0.01377058
O       0.94839081     4.67483682     4.54452260    -0.05062633     0.01656125     0.08676808
O       5.40238799     8.95087233     2.63925474     0.02235652     0.05501726     0.01166484
O       5.36163290     3.34798105     2.48483802     0.03435921     0.04649610    -0.06619359
O       0.16631230     8.84870004     2.53123703    -0.02725627    -0.04025423    -0.00600687
O       0.20446867     3.33990646     2.48837543    -0.01917864     0.05183757     0.01237961
O      10.16032328     7.62001175     6.72639561    -0.14234018     0.06757684     0.20717134
O      10.16345184     2.15540073     6.76181520     0.03877276     0.00917576     0.02565113
O       4.96810094     7.65136092     6.78958761     0.00162340    -0.04174599     0.07235447
O       4.98447663     2.15976144     6.81336920    -0.00977868    -0.13350895    -0.15740299
O       7.95481622     7.62007703     2.09479402     0.14287394     0.06663942     0.20564951
O       7.95173161     2.15533683     2.13014970    -0.03995496     0.00907291     0.02536960
O       2.79563031     7.65127401     2.15787505    -0.00151207    -0.04145288     0.07187496
O       2.77906408     2.15957061     2.18163818     0.01077113    -0.13341202    -0.15821418
O       7.59737095     8.84872117     7.16295008     0.02710252    -0.04050980    -0.00609249
O       7.55923998     3.33998714     7.12009310     0.01805121     0.05186508     0.01309978
O       2.36108050     8.95091022     7.27106356    -0.02105631     0.05457066     0.01133626
O       2.40206710     3.34805822     7.11650095    -0.03402291     0.04689205    -0.06558115
O       5.37440165     6.12800258     2.14626953     0.03204598     0.08300450     0.06464219
O       5.34733143     0.60197160     2.12822675    -0.01799747    -0.14085897    -0.03069153
O       0.19690955     6.10679827     2.12604135     0.10680598    -0.04662826    -0.01586988
O       0.15264079     0.56762968     2.10871881     0.08463021    -0.00186585     0.06994560
O      10.24118523    10.41938392     7.21054185     0.00262304    -0.01597350    -0.03487574
O      10.16380911     4.90733719     7.12322999     0.02279361    -0.07644638    -0.03157779
O       5.05873535    10.34961882     7.03327828     0.00363708     0.22733317    -0.04473001
O       4.98427551     4.90107737     7.13471890    -0.01739301     0.01406548     0.00887237
O       7.56681590     6.10686225     6.75781048    -0.10733665    -0.04663520    -0.01571305
O       7.61086868     0.56773337     6.74043064    -0.08531746    -0.00218107     0.07068891
O       2.38934984     6.12801160     6.77805944    -0.03155413     0.08314488     0.06509984
O       2.41628454     0.60204659     6.76003328     0.01756887    -0.14152540    -0.03024827
O       7.87392548    10.41932926     2.57875447    -0.00346996    -0.01590434    -0.03480015
O       7.95145818     4.90727179     2.49141063    -0.02339756    -0.07646207    -0.03162587
O       2.70490250    10.34957371     2.40145918    -0.00403920     0.22755506    -0.04555996
O       2.77945106     4.90101196     2.50291869     0.01796019     0.01446966     0.00799562
