# total energy = -19900.37779018 eV

CRYSTAL
PRIMVEC
        7.42979256     0.00000000     0.00000000
        0.00002339     2.99941410     0.00000000
        0.00000000     0.00000000    11.49946645
PRIMCOORD
24 1
Ti      2.69295642     1.77744998     4.26622005    -0.63492053     0.44032343     0.50920126
Ti      4.73685975     1.22196402     7.23324650     0.63492053    -0.44032343    -0.50920126
Ti      6.40772589     1.22196504     1.48346728    -0.63307062    -0.44056846    -0.50632213
Ti      1.02209027     1.77744911    10.01599938     0.63307062     0.44056846     0.50632213
Ti      2.69294483     0.27774298     1.48351338    -0.63494805     0.43416101    -0.50773316
Ti      4.73687134     2.72167112    10.01595328     0.63494805    -0.43416101     0.50773316
Ti      1.02207868     0.27774191     7.23320040     0.63346632     0.43426694    -0.50811239
Ti      6.40773748     2.72167219     4.26626615    -0.63346632    -0.43426694     0.50811239
O       2.35158459     1.05614467     5.86808969     6.03851595    -0.66943529     1.69566116
O       5.07823162     1.94326932     5.63137686    -6.03851595     0.66943529    -1.69566116
O       1.36337177     1.05615675     0.11839346    -6.03938164    -0.66957927     1.69159522
O       6.06644450     1.94325724    11.38107278     6.03938164     0.66957927    -1.69159522
O       5.07822003     0.44356227     0.11835615    -6.03808169     0.66956411     1.69366084
O       2.35159613     2.55585172    11.38111008     6.03808169    -0.66956411    -1.69366084
O       6.06643291     0.44355019     5.86812705     6.04087160     0.66984256     1.69323173
O       1.36338320     2.55586385     5.63133951    -6.04087160    -0.66984256    -1.69323173
O       0.26995580     1.82441367     3.10629276     0.88192445    -0.39246876     1.62682782
O       7.15986037     1.17500032     8.39317379    -0.88192445     0.39246876    -1.62682782
O       3.98486186     1.17497244     2.64347703     0.88660180     0.39261994    -1.63132237
O       3.44495436     1.82444161     8.85598931    -0.88660180    -0.39261994     1.63132237
O       0.26994421     0.32470662     2.64344031     0.88171053    -0.39174268    -1.63171934
O       7.15987196     2.67470737     8.85602604    -0.88171053     0.39174268     1.63171934
O       3.44494276     0.32473450     8.39321041    -0.88734665    -0.39192137    -1.62705639
O       3.98487345     2.67467949     3.10625609     0.88734665     0.39192137     1.62705639
