# total energy = -19939.13985276 eV

CRYSTAL
PRIMVEC
        5.38840029     0.00000000     0.00000000
        2.69879349     5.06018300     0.00000000
        0.00000000     0.00000000     9.97983327
PRIMCOORD
24 1
Ti      3.55233849     2.99865977     3.70244698     2.95627737    -4.33167049     1.02943306
Ti      4.53485544     2.06152337     6.27738640    -2.95627737     4.33167049    -1.02943306
Ti      5.74663928     2.06152517     1.28742984    -6.36158752     0.66013381     1.47018896
Ti      2.34055481     2.99865820     8.69240360     6.36158752    -0.66013381    -1.47018896
Ti      2.20294195     0.46856843     1.28746987     2.95627737    -4.33167049    -1.02943306
Ti      5.88425208     4.59161490     8.69236362    -2.95627737     4.33167049     1.02943306
Ti      0.99115801     0.46856649     6.27734637     6.36158752    -0.66013381     1.47018896
Ti      7.09603600     4.59161679     3.70248696    -6.36158752     0.66013381    -1.47018896
O       2.65575383     1.78177650     5.09263255     0.57660455     1.49420204    -1.36395068
O       5.43144016     3.27840668     4.88720083    -0.57660455    -1.49420204     1.36395068
O       1.93907093     1.78179686     0.10274798     1.59710046    -0.77681129    -0.03927079
O       6.14812312     3.27838635     9.87708508    -1.59710046     0.77681129     0.03927079
O       4.08204351     0.74831515     0.10271559    -0.57660455    -1.49420204    -1.36395068
O       4.00515046     4.31186797     9.87711747     0.57660455     1.49420204     1.36395068
O       4.79872648     0.74829482     5.09266488    -1.59710046     0.77681129    -0.03927079
O       3.28846746     4.31188837     4.88716844     1.59710046    -0.77681129     0.03927079
O       1.83733221     3.07789012     2.69580194     0.57361179     0.12540509     0.28177244
O       6.24986178     1.98229306     7.28403138    -0.57361179    -0.12540509    -0.28177244
O       3.94719317     1.98224580     2.29414644     1.82113978    -0.14075227    -1.08382786
O       4.14000082     3.07793738     7.68568672    -1.82113978     0.14075227     1.08382786
O       0.48793557     0.54779859     2.29411459     0.57361179     0.12540509    -0.28177244
O       7.59925841     4.51238453     7.68571858    -0.57361179    -0.12540509     0.28177244
O       2.79060418     0.54784585     7.28406318    -1.82113978     0.14075227    -1.08382786
O       5.29658980     4.51233727     2.69577009     1.82113978    -0.14075227     1.08382786
