# total energy = -19518.01007625 eV

CRYSTAL
PRIMVEC
        5.93400000     0.00000000     0.00000000
        0.00000000     9.29699974     0.00000000
        0.00000000     0.00000000     4.64899994
PRIMCOORD
23 1
Ti      4.43794702     7.03089898     2.21324400     0.58021078    -0.02689966    -0.20756189
Ti      4.53549502     2.38133498     2.34891002    -0.51897402    -1.22048538    -0.10282077
Ti      1.42304499     6.99115301     2.26942998    -1.03034529     0.40613341    -0.05390963
Ti      1.49229302     2.33822302     2.33624300     0.28960454    -1.20441058     0.32172277
Ti      2.96414001     4.48726703     0.13612000    -0.10593257     0.29539415     0.81783454
Ti      2.97949102     0.08995802     4.60301100    -0.40956557     0.21972064    -0.16249327
Ti      0.00251402     4.56719099     4.63813303     0.01098324     1.32157991    -0.36235213
Ti      5.90042598     0.00069402     4.57405802     0.38269805     0.08681025     0.22092906
O       4.37815602     5.52657998     0.95854998     0.10294958    -0.08644643    -0.36818314
O       4.49973100     0.94591502     0.91736501    -0.43433276    -0.30758787    -0.13069899
O       1.51698999     5.54686599     0.96589099    -0.05179026    -0.13421806    -0.29539441
O       1.49885302     1.08004198     0.95261600     0.28733040    -1.44112160    -1.02416153
O       4.51442001     8.42282200     3.57364801    -0.68256232     0.20936604     1.02485393
O       4.38058002     3.51446599     3.84792502     0.50228910     1.60922784     0.68201082
O       1.46772703     8.45133899     3.67402002     0.43582683    -0.50833428     0.15235669
O       1.51620300     3.71976702     3.79564998    -0.16615452     0.33680847     0.17472864
O       3.01277299     1.40495999     3.19271299    -0.14724250    -0.47251803     0.61409382
O       5.87598598     6.02443698     3.33264899     0.15308380     0.09614490    -0.52429055
O       0.03821602     1.40237602     3.32681698    -0.20932413     0.98418780    -1.09347335
O       2.90428202     7.85396302     1.35155098     0.34261736    -0.33596952     0.62723062
O       2.94031402     3.31701599     1.55057301     0.70604242    -0.13517400    -0.16575754
O       5.89593898     7.75731599     1.32329497     0.48944823     0.49722814     0.01316791
O       0.05387400     3.35621902     1.54909501    -0.52686037    -0.18943638    -0.15783185
