# total energy = -19076.18223757 eV

CRYSTAL
PRIMVEC
        7.60600008     0.00000000     0.00000000
        0.00000000     7.60600008     0.00000000
       -1.89786986    -1.89786986     4.85670466
PRIMCOORD
22 1
Ti      3.64150202     6.60556800     1.27058098     0.93282408     1.26134048    -0.86484692
Ti      3.81453600     2.91288401     1.27503502     1.18252843    -1.16807394     0.21584393
Ti      0.11003003     6.69642001     1.08971000    -1.01822562     0.45327486    -0.53189922
Ti      0.15439699     2.90794800     1.05056999    -1.44980884    -1.08983318     0.26847263
Ti      5.80169421     2.82745220     3.48066881    -0.53902786     0.15722456    -0.29115749
Ti      6.05208823    -0.92726777     3.59016580    -0.62507321    -0.25336817     0.01425266
Ti      1.92671421     2.75050925     3.66214983    -0.20291822     0.88967221    -0.28578696
Ti      1.30491623    -0.89520979     3.93329279     0.34605030    -1.51329763     0.88321437
O       3.67964703     4.74007299     0.84930202     0.04375711    -0.06001291     0.05487250
O       3.86457500     0.88762398     0.94098902    -0.61461241    -0.23719233     0.59966967
O       0.18069001     4.75453498     0.59373799     0.36354204     0.29730860     0.33168066
O      -0.06084798     1.03349799     0.73194601     0.90640085    -1.17599423    -0.05178127
O       5.69068123     4.81579021     3.91451081     0.39212372    -0.17473018     0.02255424
O       5.50174125     0.88358525     3.86966981     0.90702665     0.95572517     0.20287760
O       1.82868423     4.74033821     4.20604583    -0.66312195    -0.06099713    -0.18843699
O       1.87359624     0.87203521     4.11044779    -0.17458928     0.99631904     0.17075654
O       3.75330522     2.90060921     3.25521681     0.54953699     0.04772921    -0.08988349
O       0.02321024     2.77508720     3.03411682     0.44736800     0.28150222     0.83018766
O       5.91491798     6.66641799     1.66646700    -0.71427381    -0.45907604     0.42819605
O       5.74206699     2.87775600     1.48701300    -0.45421357     0.44650694     0.68042573
O       1.77655799     6.62858801     2.18680498     1.15392490    -0.10663012    -2.42017825
O       1.96969001     2.65022302     1.61703899    -0.76921856     0.51260206     0.02096633
