# total energy = -19954.44845997 eV

CRYSTAL
PRIMVEC
        6.03492720     0.00000000     0.00000000
        0.00002806     5.25517181     0.00000000
        0.00000000     0.00000000     9.91845083
PRIMCOORD
24 1
Ti      2.18738746     3.11420984     3.67967464     0.13288520    -0.05489770    -0.11629464
Ti      3.84756785     2.14096174     6.23877658    -0.13288520     0.05489770     0.11629464
Ti      5.20474650     2.14096344     1.27951134     0.13417667     0.05489590     0.11773600
Ti      0.83020882     3.11420831     8.63893999    -0.13417667    -0.05489590    -0.11773600
Ti      2.18737366     0.48662405     1.27955111     0.13204934    -0.06633243     0.11741487
Ti      3.84758166     4.76854770     8.63890022    -0.13204934     0.06633243    -0.11741487
Ti      0.83019501     0.48662212     6.23873681    -0.13277722    -0.06596630     0.11722692
Ti      5.20476031     4.76854957     3.67971441     0.13277722     0.06596630    -0.11722692
O       1.91010246     1.85043525     5.06130969     0.81786436     0.51652607    -0.06994920
O       4.12485286     3.40473633     4.85714153    -0.81786436    -0.51652607     0.06994920
O       1.10741617     1.85045649     0.10211602    -0.81796489     0.51667803    -0.07047936
O       4.92753920     3.40471515     9.81633492     0.81796489    -0.51667803     0.07047936
O       4.12483905     0.77715037     0.10208383    -0.81770444    -0.51645588    -0.06991269
O       1.91011627     4.47802121     9.81636711     0.81770444     0.51645588     0.06991269
O       4.92752534     0.77712919     5.06134189     0.81808162    -0.51691714    -0.07065266
O       1.10742986     4.47804245     4.85710933    -0.81808162     0.51691714     0.07065266
O       0.21927983     3.19649342     2.67922111    -0.26970162    -0.07867167     0.21283086
O       5.81567549     2.05867817     7.23923011     0.26970162     0.07867167    -0.21283086
O       3.23674946     2.05862933     2.28003605    -0.26904265     0.07877657    -0.21270153
O       2.79820585     3.19654226     7.63841500     0.26904265    -0.07877657     0.21270153
O       0.21926596     0.56890746     2.28000436    -0.26932161    -0.07830118    -0.21314042
O       5.81568935     4.68626413     7.63844669     0.26932161     0.07830118     0.21314042
O       2.79819199     0.56895630     7.23926175     0.26906630    -0.07889330    -0.21279615
O       3.23676332     4.68621529     2.67918942    -0.26906630     0.07889330     0.21279615
