# total energy = -19952.50696890 eV

CRYSTAL
PRIMVEC
        6.21996052     0.00000000     0.00000000
        0.00002628     4.89298360     0.00000000
        0.00000000     0.00000000     9.90313533
PRIMCOORD
24 1
Ti      2.25445212     2.89957759     3.67399258     0.20996588     0.29620379    -0.50130488
Ti      3.96553474     1.99340618     6.22914281    -0.20996588    -0.29620379     0.50130488
Ti      5.36432495     1.99340788     1.27753555     0.21097323    -0.29624339     0.50182090
Ti      0.85566190     2.89957611     8.62559994    -0.21097323     0.29624339    -0.50182090
Ti      2.25443909     0.45308590     1.27757526     0.20982986     0.29544172     0.50074721
Ti      3.96554776     4.43989804     8.62556024    -0.20982986    -0.29544172    -0.50074721
Ti      0.85564887     0.45308403     6.22910310    -0.21114627     0.29532010     0.50125397
Ti      5.36433798     4.43989990     3.67403228     0.21114627    -0.29532010    -0.50125397
O       1.96866606     1.72290274     5.05349416     0.90827750     0.19136959     0.14723711
O       4.25132084     3.17008103     4.84964123    -0.90827750    -0.19136959    -0.14723711
O       1.14136913     1.72292248     0.10195835    -0.90767560     0.19120813     0.14685324
O       5.07861783     3.17006135     9.80117676     0.90767560    -0.19120813    -0.14685324
O       4.25130781     0.72358917     0.10192622    -0.90809520    -0.19130429     0.14700313
O       1.96867909     4.16939459     9.80120889     0.90809520     0.19130429    -0.14700313
O       5.07860481     0.72356949     5.05352629     0.90744497    -0.19105026     0.14669872
O       1.14138204     4.16941433     4.84960910    -0.90744497     0.19105026    -0.14669872
O       0.22600155     2.97618999     2.67508392    -0.45379448    -0.01807152     0.40228035
O       5.99398536     1.91679378     7.22805147     0.45379448     0.01807152    -0.40228035
O       3.33598851     1.91674814     2.27651527    -0.45391480     0.01833069    -0.40251612
O       2.88399840     2.97623568     7.62661995     0.45391480    -0.01833069     0.40251612
O       0.22598852     0.52969819     2.27648364    -0.45387907    -0.01817205    -0.40251406
O       5.99399839     4.36328564     7.62665158     0.45387907     0.01817205     0.40251406
O       2.88398537     0.52974382     7.22808305     0.45391429    -0.01830755    -0.40246727
O       3.33600154     4.36323995     2.67505228    -0.45391429     0.01830755     0.40246727
