# total energy = -79406.58608373 eV

CRYSTAL
PRIMVEC
       10.35150501     0.00002646     0.00000000
        0.00002858    11.01713167     0.00000000
        0.00000000     0.00000000     9.26345890
PRIMCOORD
95 1
Ti      7.01970889     8.82569177     3.47561187     0.00975965    -0.01136248     0.02444246
Ti      7.14954566     3.22858599     3.41525875     0.01335971    -0.01220580    -0.00135343
Ti      1.84743579     8.81184919     3.44861106    -0.01391430     0.04779914    -0.00014938
Ti      1.77438241     3.13829027     3.50581719    -0.02760697    -0.03196757     0.04580319
Ti      8.49037373     7.72567580     5.80237356    -0.03688892     0.03837579     0.00607372
Ti      8.49187950     2.22374751     5.83401446     0.01548910    -0.02107920     0.05672241
Ti      3.28810890     7.70431176     5.80572386    -0.02788028    -0.00814269    -0.03775744
Ti      3.33452696     2.19404703     5.84056613    -0.00944315    -0.06907554     0.00147041
Ti      9.53546222     7.76837851     1.20011979    -0.02614864     0.01839599    -0.02232773
Ti      9.66799833     2.18669680     1.15737379     0.01564774     0.00017304    -0.02101826
Ti      4.45388139     7.69120945     1.21901062     0.02801732     0.03649759    -0.03464306
Ti      4.47288671     2.23100761     1.21269623     0.00688182    -0.06031296    -0.01886368
Ti      5.89695181     8.81501666     8.10942233     0.00448735    -0.02010295    -0.00833192
Ti      5.91946415     3.29733836     8.09829671    -0.01130617     0.02910516     0.02383979
Ti      0.67433162     8.90262364     7.94710642     0.04171334    -0.04297266     0.01817591
Ti      0.73503051     3.30287607     8.06988593    -0.04254380    -0.00357332    -0.03301452
Ti      7.02661690     6.02762078     1.19061198     0.00707748     0.01442209     0.00741841
Ti      7.02525781     0.53975009     1.22114446     0.01781030     0.07418561     0.02278255
Ti      1.74425948     6.28805501     0.95565000    -0.03056734     0.02353717    -0.07266377
Ti      1.88263083     0.51724455     1.15743704     0.00214559     0.03190149    -0.00455343
Ti      8.41640475    10.47718385     8.10621917    -0.00382760    -0.00486916     0.00012264
Ti      8.50958942     4.95204194     8.08934446     0.02514977     0.00969898    -0.02317748
Ti      3.32782642    10.46061757     8.08938515     0.01906037    -0.00448915    -0.02681636
Ti      3.30614123     4.94610121     8.07672730     0.02700945    -0.00833192    -0.03419671
Ti      5.89906291     6.14716230     5.96445208     0.00882583    -0.02493328    -0.00355635
Ti      5.89709114     0.54583706     5.82486019     0.03759931     0.01412925    -0.00469124
Ti      0.73305744     6.03319778     5.79992892    -0.01699577     0.01816125    -0.00874921
Ti      0.69543285     0.50886143     5.85249139    -0.00346431     0.02034926    -0.06708448
Ti      9.63355085    10.49070014     3.43367631     0.00102870     0.01004479    -0.01526773
Ti      9.66416771     4.99424253     3.38897538    -0.06063692    -0.00049082    -0.00127218
Ti      4.43350465    10.46395039     3.45133016     0.00288761    -0.01608508    -0.01033070
Ti      4.73917878     4.91647634     3.63200471     0.08018065    -0.04866432     0.05283002
O       6.81764129     7.44776952     4.73967906    -0.01326973    -0.01833943     0.02951062
O       6.82708221     1.92692956     4.72587460     0.05357667     0.00439633    -0.01081766
O       1.63809926     7.44991658     4.73766601    -0.00271843    -0.03268130    -0.01916450
O       1.60142136     1.87765680     4.72640041     0.00836689     0.00365740    -0.03311993
O       8.71743062     9.08003854     4.54155891     0.01645327     0.00617219    -0.00513784
O       8.75063330     3.56402709     4.53550952     0.00559986    -0.02826595    -0.00154318
O       3.52753733     9.08225314     4.53946857    -0.00102767    -0.02157542    -0.01112465
O       3.44916532     3.64423041     4.36744890     0.04276929     0.04898082     0.00131872
O       6.10022118     7.41940558     0.11698207     0.00702786    -0.01298896     0.01802138
O       6.12537309     1.92024827     0.09196990     0.01772416     0.00617965     0.01116322
O       0.89204943     7.48071673    -0.02069057     0.08066762    -0.05350853     0.01127635
O       0.95435586     1.92304804     0.08498022    -0.01888065     0.03042053    -0.02794276
O       9.38351363     9.10770879     9.16245603    -0.04402424     0.00777810     0.01348750
O       9.41482249     3.57108037     9.16457183     0.01247988     0.02311011    -0.02376060
O       4.20313725     9.06646176     9.19169510    -0.01986255     0.00147196     0.02491040
O       4.23948563     3.57566641     9.18415853     0.00905954     0.01315814     0.03328166
O       8.70104304     6.33172030     0.09998042    -0.00343705     0.02174691     0.01683225
O       8.69782853     0.82176351     0.09100353     0.02868967    -0.00035147     0.00926497
O       3.53431004     6.31915521     0.09045985    -0.03414786    -0.01033095     0.05212477
O       3.53785081     0.81574202     0.11469517     0.00623441     0.00914002    -0.00410708
O       6.79791828    10.18481728     9.18927050    -0.02240280    -0.01275988     0.02204439
O       6.82576546     4.66736399     9.18047018    -0.01772159     0.00298634     0.00921098
O       1.62010812    10.20793660     9.16390005    -0.00464804     0.00729756    -0.03305591
O       1.66145646     4.67124409     9.21009219     0.01039240     0.03438569     0.00974577
O       9.41388069     6.31309327     4.71869694     0.00156914    -0.00826867    -0.02540071
O       9.40686280     0.81133615     4.73505809    -0.00182626    -0.02048373     0.00597036
O       4.24171440     6.32747912     4.75036071    -0.00468301     0.00511573    -0.01699063
O       4.21387123     0.84181815     4.70779037     0.03932478     0.00343911    -0.01322730
O       6.11408658    10.19874226     4.54702424    -0.00485142     0.00265132     0.00176712
O       6.20975967     4.68990764     4.61188321    -0.08730364    -0.01644144    -0.01942675
O       0.94293467    10.17797233     4.54525452     0.00173370    -0.06166793     0.00911251
O       1.02748462     4.73563515     4.43494863    -0.06507593    -0.07025079     0.01954682
O       5.35059500     8.83993250     2.51392614    -0.02949828     0.01405854    -0.00972160
O       5.42258850     3.34918226     2.52069574    -0.00994066    -0.01618176     0.01120153
O       0.18869175     8.86530214     2.47799630     0.00160514    -0.00723997     0.01628923
O       0.17156214     3.37126275     2.46990327     0.00671135     0.01054024     0.00100299
O      10.17206729     7.66886927     6.73689110    -0.00414205    -0.01934833    -0.02300881
O      10.17496495     2.14076234     6.76753475    -0.00818922     0.01258350     0.03522798
O       4.97614189     7.65618606     6.79173311     0.00201832     0.03959835     0.03224267
O       4.97183010     2.17599679     6.74325190     0.02432984     0.02439052     0.00812855
O       7.92853224     7.67044257     2.13735225    -0.00994580    -0.03741702    -0.00222246
O       7.97221660     2.12161277     2.13778222     0.01930591    -0.03475027    -0.01200269
O       2.74534174     7.52709260     2.16036311    -0.02120621    -0.01664790    -0.01310543
O       2.77966205     2.26746636     2.11569925    -0.03540616    -0.03644103     0.01670883
O       7.55003610     8.85358102     7.13804004    -0.01808360    -0.03189635    -0.01324221
O       7.58479308     3.35440922     7.13388252     0.01507258     0.00852552    -0.01329415
O       2.38099521     8.89081595     7.11641123     0.01129023     0.01172835    -0.01931850
O       2.40774524     3.36079226     7.10922268     0.01408065     0.01285963    -0.01278404
O       5.33304079     6.05146645     2.14971858    -0.01059012    -0.00940047     0.05255208
O       5.36137427     0.59296547     2.14177836    -0.01056621    -0.00971389     0.00161722
O       0.20849436     6.13959212     2.09017497     0.02070793     0.00961979    -0.00644447
O       0.20817564     0.61499119     2.14945502    -0.00985864     0.01122621    -0.00264567
O      10.12664617    10.41446439     7.11960895    -0.01244929     0.03892060    -0.03078794
O      10.17954614     4.89493448     7.11340009     0.00348025     0.00693170     0.02386216
O       4.98366098    10.41862101     7.14084049    -0.00812880     0.00241709     0.00704431
O       4.99747990     4.90062245     7.14000432    -0.01584366     0.03001173     0.04848717
O       7.58287624     6.10866562     6.79283511     0.03288005     0.02766919     0.00839697
O       7.55802471     0.60167670     6.77273707    -0.01232922     0.01342579    -0.00920198
O       2.39491631     6.10578951     6.77243932    -0.00181726     0.02333328     0.00232428
O       2.41543911     0.63363170     6.74606123    -0.00336120     0.01843250     0.04706869
O       7.95021188    10.40838099     2.50583804     0.02131034     0.02997239    -0.00321979
O       7.97243990     4.90655331     2.49634912     0.00063018     0.00190236    -0.00339103
O       2.77298872    10.39607652     2.48510449    -0.00076105     0.00859931    -0.00139688
