# total energy = -19077.05096208 eV

CRYSTAL
PRIMVEC
        5.17575250     0.00001323     0.00000000
        0.00001429     5.50856584     0.00000000
        0.00000000     0.00000000     9.26345890
PRIMCOORD
22 1
Ti      1.91614988     3.35160599     3.36254819     0.06700709     0.39097906    -0.18962947
Ti      3.33933696     2.25915728     5.88545341     0.20082226    -0.18024031     0.14113896
Ti      4.50072936     2.25819634     1.16963142    -0.08241211     0.04152770    -0.07859917
Ti      0.74330980     3.24418677     8.08811665     0.04125002     0.10973781    -0.03557251
Ti      1.86198536     0.53831903     1.19752088    -0.10238677     0.38508866     0.18376375
Ti      3.25090617     4.99110693     8.09880398    -0.17177598     0.01718500    -0.00076285
Ti      0.70745281     0.54155251     5.82061149     0.16011782    -0.00131203    -0.18349250
Ti      4.45629767     4.97829836     3.43681824     0.23388254     0.00007585     0.41803813
O       3.49080100     3.52210726     4.55063091    -0.13157780    -0.06259713    -0.06395262
O       0.94157664     1.91676853     0.12245510     0.03183901    -0.08154540     0.05657483
O       4.20093105     3.60776762     9.13504923    -0.07113911    -0.04740653    -0.03198633
O       3.55349642     0.81035814     0.07920596     0.00846073     0.11585807     0.00176943
O       1.62426568     4.68677891     9.15083170    -0.16467073     0.00854018    -0.03129856
O       4.24023157     0.81835228     4.73250962    -0.02419383    -0.05188411    -0.12149495
O       0.95653665     4.67839158     4.56506884    -0.13077253    -0.19478531    -0.00800719
O       0.17362390     3.33687461     2.51345217    -0.09352057    -0.02927356    -0.00244718
O       5.04625669     2.11737840     6.75196441     0.27178782    -0.10526049     0.15095338
O       2.75441896     2.13703911     2.16267425    -0.01552510    -0.27752781    -0.07654460
O       2.38940119     3.36191538     7.10851886    -0.12093265     0.09339819    -0.08116076
O       0.18913681     0.58081011     2.14835520     0.00121922    -0.23348428     0.14949813
O       2.38247765     0.62065761     6.71377059     0.12664590     0.13891470    -0.05094154
O       2.76399786     4.89342382     2.50642503    -0.03412575    -0.03598774    -0.14584640
