# total energy = -19073.98968246 eV

CRYSTAL
PRIMVEC
        5.93400000     0.00000000     0.00000000
        0.00000000     9.29699974     0.00000000
        0.00000000     0.00000000     4.64899994
PRIMCOORD
22 1
Ti      4.36941999     6.94602398     2.26024500    -0.62986189    -0.32994851     0.37462555
Ti      4.37657701     2.36899499     2.26734602    -0.23091215    -0.33752272    -0.17171350
Ti      1.48880199     6.98179202     2.48088402     0.29519849     0.28729440     0.71518115
Ti      1.60660298     2.37449399     2.09140999    -0.57291322     0.75789387    -0.25831266
Ti      3.04559700     4.69397699     4.52336797    -0.42071362     0.23240287     0.15215563
Ti      2.96029199     9.28344498     4.61179900     0.82986576    -0.00609866    -0.44122049
Ti      5.88863099     4.62345698     4.56760301     0.41358369    -0.12445584    -0.13899903
Ti      0.04052699     9.10154702     0.28221298    -1.93273727     0.38052675    -0.35281951
O       4.47964301     5.47751901     0.93391000     0.69633290     1.32782615     1.31925615
O       4.42462599     0.95419400     0.66862202     0.78401063     1.29208986     1.47928655
O       1.47897300     0.84317198     0.96382000    -0.53625133     1.30321554    -0.04966010
O       4.40339502     8.30194500     4.08554302     0.68895717    -1.00026774    -1.94936589
O       4.48531500     3.84656599     3.62151601     0.02866267    -1.23584310    -0.48076690
O       1.33082802     8.28597798     3.82257500     0.49122667     1.30124736     0.60346488
O       1.61192799     3.93597398     3.64255302    -1.15044799    -0.67320865    -0.33138164
O       3.00350598     6.29753101     3.49910201    -0.28742450    -1.03866641    -0.62380797
O       2.96042698     1.31628502     3.03689500    -0.42864702     0.03839893     1.01208171
O       5.88323402     6.20877899     3.33098801     0.14669769    -1.93382048     0.37153894
O       2.89166802     8.11118502     1.67319898     0.31880611    -1.18710088    -0.62239412
O       3.10007601     3.21993900     1.28247001    -0.75267890     0.30828078    -0.02747765
O       5.92503902     7.86112199     1.59679399     0.05569089     0.14343367    -0.33273764
O       5.81057698     3.07799498     1.35152102     2.19355547     0.49432305    -0.24693347
