# total energy = -4979.15901654 eV

CRYSTAL
PRIMVEC
        2.72576895     0.00000000     0.00000000
        1.45038674     4.01705363     0.00000000
       -0.00000942    -0.00005659     4.33984610
PRIMCOORD
6 1
Ti      2.08807313     2.00849847     2.16992305     0.00000000     0.00000000     0.00000000
Ti      0.00000000     0.00000000     0.00000000     0.00000000     0.00000000     0.00000000
O       1.64554163     0.78285355     0.84577210    -8.91742288     3.81800785     4.92969156
O       2.53060463     3.23414340     3.49407405     8.91742288    -3.81800785    -4.92969156
O       0.44252754     1.22562205     3.01569601     8.91719585    -3.81910648     4.93078505
O       1.00784985     2.79137488     1.32415014    -8.91719585     3.81910648    -4.93078505
