# total energy = -19517.91339172 eV

CRYSTAL
PRIMVEC
        5.17600016     0.00000000     0.00000000
        0.00000000     5.50899976     0.00000000
        0.00000000     0.00000000     9.26300011
PRIMCOORD
23 1
Ti      1.89137802     3.22672999     3.36763899    -0.36272648    -0.01151109     1.50941886
Ti      3.29157500     2.21622898     5.87020499     0.30427192     0.10877107    -1.13064586
Ti      4.47481702     2.23578103     1.30054199     0.90794017    -1.20618670    -1.59193485
Ti      0.72174099     3.34695001     7.99512899    -0.41050171    -1.14707368     1.89134224
Ti      1.87499703     0.54122201     1.29208399    -0.32900131     0.43655471    -2.47555649
Ti      3.32328700     5.03625799     7.97819002    -0.98729267     0.30941695     2.40296085
Ti      0.74666799     0.55083399     5.84249197    -0.46688602     0.02600698    -1.63761154
Ti      4.45543199     4.93052700     3.45323902     0.29776291     0.74678593     0.86703493
O       1.57209602     1.93111500     4.73440100     0.63872397    -0.05668745    -0.02035955
O       3.45872002     3.54112202     4.42718599     0.28866917     0.22184515     1.03338151
O       0.90970401     2.00497000     0.13098597    -0.71350736     0.72160145    -0.20626863
O       3.50758600     0.85999701     0.15551800    -0.11241510    -0.79369958    -1.18320900
O       1.70369902     4.65145501     9.00285498     0.39778272     1.35229329     1.98526930
O       4.26801100     0.82066999     4.71589398    -0.16686620    -0.14036454     0.25528570
O       0.91011100     4.65091398     4.51016500    -0.01305092     0.65501423     0.45005661
O       0.09992602     3.31170802     2.60253298     0.34085847     0.72486033    -0.75658827
O       5.03712902     2.22603898     6.73159998    -0.99477792    -1.01391542    -0.45128585
O       2.82106699     2.04225403     2.18849099    -1.28046050     0.58600322     0.38342336
O       2.29152001     3.23102902     7.19620199     3.44334553     0.23011870    -1.90117440
O       0.08323799     0.69856800     2.03745100     0.67160788    -1.75765202     1.31894710
O       5.04924803     4.86031100     7.11782502    -0.65886188     0.51589281     0.26499702
O       2.56189100     0.61450999     6.76176901    -1.19306250     0.14941097    -1.00244007
O       2.67631701     4.90484000     2.49003000     0.39844735    -0.65748532    -0.00504322
