# total energy = -19961.80870465 eV

CRYSTAL
PRIMVEC
        7.60600008     0.00000000     0.00000000
        0.00000000     7.60600008     0.00000000
       -1.89786986    -1.89786986     4.85670466
PRIMCOORD
24 1
Ti      3.76797301     6.59197698     1.25003499     0.09834190    -0.39399959    -0.35690859
Ti      3.75713598     2.79071201     1.23885501     0.11969595     0.47587281    -0.19565202
Ti      0.04043099     6.70976602     1.19437798    -0.36481165    -0.29353961     0.04926853
Ti     -0.01462900     2.90884199     1.15598903     0.16563001     0.37784355     0.22417688
Ti      5.72655321     2.95899921     3.60506383     0.28793255    -0.37397198     0.34292075
Ti      5.71271120    -0.90889579     3.59987181     0.88498406     0.16356567     0.39953107
Ti      1.87087622     2.77615323     3.63208479    -0.38824675     0.08959706     0.10779714
Ti      1.89872724    -1.04408979     3.66156779    -0.80497979     0.11624219     0.05572277
O       3.64456199     4.73522398     0.79522699     0.64055922    -0.44694480    -0.23783587
O       3.71077302     0.91851301     0.93185002     0.51745759    -0.52573577    -0.80518471
O       0.08244799     4.80204197     0.78232199    -0.30422332    -0.01294679    -0.13841128
O       0.08416601     1.02691301     0.73730801    -0.49012623    -0.61976542     0.22102342
O       5.98322021     4.77629120     4.09361683    -1.00516364     0.54950666    -0.21779052
O       5.72494922     1.01792822     4.05064383    -0.39801180    -0.41898044    -0.48680591
O       1.68620320     4.65654723     4.11487579     0.81226913     1.31999971     0.03795875
O       1.94291121     0.86365722     4.01888282     0.09484623     0.23244272     0.49281535
O       3.75604122     2.88607324     3.18031384     0.61542411     0.10691885     0.62095635
O       3.82431821    -1.15461179     3.23325082    -0.37943146     0.14869775     0.13549873
O      -0.03782675     2.86604722     3.20036579     1.12203086    -0.61439567    -0.26835873
O      -0.00958779    -0.93116077     3.21176083     0.35202221     0.26026207     0.26651243
O       5.75965600     6.61189199     1.61891900    -1.16531026     0.29700726    -0.27520738
O       5.74545902     3.03228201     1.64829903    -0.89827153    -0.42154435    -0.50572050
O       1.84202002     6.61542298     1.71258898     1.48989698     0.12938413     0.20810440
O       1.93315498     2.87854400     1.60464201    -1.00251386    -0.14551652     0.32558817
