# total energy = -19959.58947162 eV

CRYSTAL
PRIMVEC
        7.60600008     0.00000000     0.00000000
        0.00000000     7.60600008     0.00000000
       -1.89786986    -1.89786986     4.85670466
PRIMCOORD
24 1
Ti      3.83920503     6.69316800     1.11584802     0.32937695    -0.01392536     1.10265014
Ti      3.65044798     2.81268800     1.12931098     0.99792341     0.83319251     2.09695009
Ti      0.08684100     6.68776902     1.24136098    -0.58602970     0.29858129    -0.57386170
Ti     -0.05181698     2.73606297     1.29988798    -1.10475407     0.69676304    -1.49414676
Ti      5.69107124     2.79404424     3.77857481     0.14632308    -1.04144423    -0.92108468
Ti      5.75379022    -0.97601680     3.58870082    -0.14793028     0.86189298    -0.16967976
Ti      1.92119124     2.71851424     3.64353380    -0.06882331     1.16505598    -0.39960177
Ti      2.01093620    -0.89992476     3.63675382    -0.09479224    -0.90110103    -0.89923158
O       3.91147402     4.77612700     0.66969201    -0.36903006    -0.55804375     0.89970955
O       3.74345300     1.03993400     0.74131801     0.59389523    -0.71398430     0.33100472
O       0.02689797     4.64125602     0.83125099    -0.49081323     2.09442373     1.05617126
O      -0.11623802     0.95192801     0.67573998     0.11595165    -0.66261415     0.93065459
O       5.83594722     4.77932921     4.02416983     0.12799033    -0.79189235     0.43811306
O       5.85621423     0.89947623     4.07700083    -1.01965413     0.71300805     0.30409374
O       1.65567824     4.81482123     4.16516879     0.34045635     0.13497860    -1.97616528
O       1.79522223     0.88114024     4.00496181     0.08784486     1.65397559     0.60743852
O       3.71372525     2.62077721     3.20242181    -1.03438115     0.52984362     0.79200394
O       3.83119021    -0.84347779     3.24493982    -0.23574119    -0.71204414     0.09648994
O      -0.01934180     2.62936121     3.09392279     0.63804828     0.26217857     2.53793944
O      -0.07760580    -0.55544778     3.06120683     1.60883138    -1.75823232     0.50872200
O       5.71637300     6.71559798     1.57621201    -0.70569840    -0.39553531    -0.69688337
O       5.55098500     2.80486602     1.95758000     0.47880104     0.48007090    -3.87017272
O       1.99815102    -0.53361901     1.71798601    -1.00467179    -1.72575439    -0.78824113
O       1.82583302     3.02324398     1.60369901     1.39687649    -0.44939352     0.08712803
