# total energy = -19075.51046072 eV

CRYSTAL
PRIMVEC
        7.60600008     0.00000000     0.00000000
        0.00000000     7.60600008     0.00000000
       -1.89786986    -1.89786986     4.85670466
PRIMCOORD
22 1
Ti      3.75230502     6.43343500     1.03123300     0.35733616     1.58022296     2.18259203
Ti      3.78352701     2.85442902     1.20497899    -0.23542263    -1.59275658     0.24377847
Ti      0.04776502     6.77697402     1.08562200    -0.29700726    -1.29437069     2.40293796
Ti     -0.05552302     2.98188099     1.24013202     0.03659607     0.08134176    -0.39326426
Ti      5.76744025     2.87962924     3.64813881    -0.55376878    -0.31040117    -0.35729348
Ti      5.89620722    -0.93885077     3.74368081    -0.75775812     1.30505465    -1.76000664
Ti      1.96912623     2.78565122     3.57890480    -0.30752951    -0.57255712    -0.70932649
Ti      1.91092721    -1.01146379     3.76714082    -0.72012153     0.55747785     0.29734073
O       3.44014198     4.58571500     0.67014700     0.56422494     1.84919567     0.21135556
O       3.65254299     0.83126300     1.02431798     0.59212348     0.23431963    -1.23154164
O       0.09185898     4.84278100     0.73990299    -0.29349205    -0.87356245    -0.22805771
O      -0.13465000     0.99921503     0.85765598     0.20783469     0.72442941    -0.29622308
O       5.87666322     4.84305623     4.12434081     0.36775633    -0.05589040    -0.99564001
O       5.71066323     1.06184723     3.78465479     0.00341494    -1.48144757     1.11353594
O       1.81360924     4.68306822     4.02918183    -0.06729325     0.38912015     0.07516237
O       1.79882424     0.85952123     4.01265880     0.58695967    -0.05950383     0.24808764
O       3.81271224     3.16606823     3.33289580    -0.06416139    -1.01841871    -0.84819028
O      -0.00042879     2.88069421     3.12191082    -0.85740409     0.25357720     0.60907554
O       5.61030799     6.24015402     1.88419698    -0.08094838     1.39482424    -0.39085925
O       5.65350399     2.94529902     1.49895600    -0.44192626     0.23873267     0.41036210
O       1.84054801     6.65863898     1.89941803     0.11718373    -0.35717676    -0.65014044
O       1.77668399     2.97774500     1.63966502     1.84340375    -0.99221068     0.06631520
