# total energy = -19959.48367045 eV

CRYSTAL
PRIMVEC
        7.60600008     0.00000000     0.00000000
        0.00000000     7.60600008     0.00000000
       -1.89786986    -1.89786986     4.85670466
PRIMCOORD
24 1
Ti      3.73401602     6.58736499     1.26536102     0.69842398    -2.35139247     0.12218504
Ti      3.72062498     2.72969401     1.18765801     0.38808657     2.11698131     0.87888438
Ti      0.08973603     6.74272101     1.27520202     0.07467541     0.12281522     0.12192279
Ti      0.01289801     2.97225002     1.05886902    -1.01299060    -0.27110390     0.49179385
Ti      5.70396120     3.15229925     3.62666982     0.07422700    -1.47189720    -1.54710457
Ti      5.73240924    -0.87763380     3.61168379    -0.51872257     0.94327871    -0.26426322
Ti      1.75014220     2.72477324     3.63985279     1.08603952     0.12379121     0.44839593
Ti      1.87089320    -1.14660677     3.77424079     1.06941065     0.50045513    -1.27331463
O       3.67305999     4.64201999     0.68688699    -0.26394981    -0.00828487     0.85560663
O       3.73128001     0.80221398     0.91577399     0.13957162     1.67152029    -0.26772830
O       0.21523200     4.77860403     0.82442000    -0.67347861     1.91616728    -1.35376242
O       0.25712998     1.05903402     0.81312498    -1.57231630    -1.36833133    -0.80946174
O      -1.49950179     4.95564022     4.08589481    -1.09335200    -2.00175085     0.71029965
O       5.77213521     1.06481221     3.83040581    -0.81222773    -0.81542927     1.23744387
O       1.70115420     4.70493721     4.12474981     0.06536415    -0.53579470    -0.02170860
O       2.03458524     0.89459520     4.06182280    -0.24496220    -1.49935428     0.12520711
O       3.74769721     2.89081123     3.13209981     1.04892795     0.36735319     0.36184537
O       3.75966720     6.16347920     3.22616080     1.60286590     1.57555692     0.53594742
O      -0.02210580     2.91563822     3.21383182    -1.45192640    -0.21898377    -0.19756801
O       0.04496424    -0.84364480     3.31094780    -0.58709054     0.35146710    -1.68268146
O       5.66219901     6.53099698     1.43340702     1.83242153     0.61275505     1.55458725
O       5.71911001     3.21114101     1.55555801    -0.20349363    -1.19970083     0.79713406
O       1.95434599     6.39227200     1.72324502    -2.07576497     1.05089741     0.24395870
O       1.74963398     2.74167897     1.69229101     2.43026109     0.38898440    -1.06761910
