# total energy = -19518.16925571 eV

CRYSTAL
PRIMVEC
        5.93400000     0.00000000     0.00000000
        0.00000000     9.29699974     0.00000000
        0.00000000     0.00000000     4.64899994
PRIMCOORD
23 1
Ti      4.58419102     7.12941898     2.27771398     0.19439707    -0.01814222     0.19036789
Ti      4.39854601     2.26596101     2.35848199    -0.16584650    -0.22017187    -0.42008267
Ti      1.46603001     7.03779998     2.21899801    -0.17436662     0.11353533     0.24303542
Ti      1.40858300     2.27389099     2.28896101     0.01526182     0.25247985     0.33315107
Ti      3.03129303     4.43397200     0.10161701    -0.85938409     0.21728838     0.28123765
Ti      2.92319302     9.23355399     4.62727002     0.74458661     0.20268605    -0.11852481
Ti      0.03997701     4.71267198     0.07963297     0.18969323    -0.24601096    -0.48316009
Ti      5.92780302     0.05358999     0.00045202    -0.21614630     0.38608574    -0.15370138
O       4.38659301     5.65339302     0.90558098    -0.38456390    -0.44038643    -0.22517061
O       4.44945302     0.82669298     0.92499898     0.38162153     0.86850560     0.09122637
O       1.55988102     5.55656798     0.86684599     0.10473367     0.61363976     0.53494932
O       1.57688698     0.86930900     0.93137498    -1.18553302     0.50373740    -0.13173515
O       4.54673702     8.23524697     3.90625401    -0.84829518     0.12456048    -1.20788157
O       4.35100103     3.75930799     3.64026999     0.22827908     0.62002664     0.29320100
O       1.52352998     8.35822300     3.75977298    -0.19046354    -0.41872745    -0.32412161
O       1.33204900     3.77905398     3.68570499     1.12155212     0.00468635    -0.01955942
O       2.89511302     1.31305201     3.21968198     0.35218984     0.80285014    -0.10338821
O       0.08904900     6.26545398     3.24656101    -0.59642391    -1.36826345    -0.10792132
O       5.85858298     1.41761902     3.18681198     0.45266705    -0.59611255     0.68001641
O       2.94613602     7.99392902     1.51740698     0.80322347    -0.95801242     0.48901038
O       2.91994498     3.11916503     1.34087699     0.03393857     0.35548188     0.02772216
O       0.09153798     7.97192202     1.39291602    -0.30188439    -0.20605908     0.13861337
O       5.83511101     3.33338100     1.39244098     0.30076313    -0.59367745    -0.00728420
