# total energy = -19516.98509426 eV

CRYSTAL
PRIMVEC
        5.93400000     0.00000000     0.00000000
        0.00000000     9.29699974     0.00000000
        0.00000000     0.00000000     4.64899994
PRIMCOORD
23 1
Ti      4.46652402     7.20573798     2.12498099    -0.54865408     0.02442420     0.23964027
Ti      4.43012102     2.29727301     2.29157001     0.37209430    -0.43499996     0.30869833
Ti      1.37713199     6.95993700     2.23511701    -0.81982252     0.21297767     1.37628221
Ti      1.45572798     2.39129399     2.40585902    -0.50603314    -0.89323371     0.09457781
Ti      2.91705202     4.57772099     0.25181799    -1.40939597    -0.64331416    -0.24295700
Ti      3.05130402     0.03384501     4.61699102    -0.51238994     1.16778032     0.40244721
Ti      5.81103302     4.58928298     0.07355902     0.65955814     0.24332775    -1.94466977
Ti      0.10804101     9.26421600     4.50152999     0.99348337     0.97853446     0.80317359
O       4.39250800     5.45956598     0.96760902     0.34691471     1.54941676     0.39164138
O       4.54992701     0.73243799     0.94343800     0.00133440     0.87891420     0.37122321
O       1.38933598     5.56013501     1.08361700     1.26676269    -1.14405623    -1.22454696
O       1.41548802     0.83843600     0.96162201     0.78125955     0.42121525    -0.37913964
O       4.52374898     8.43361102     3.61634801    -0.36379606    -0.84018206    -0.65712433
O       4.50829499     3.59806001     3.65545902    -0.37288440     1.50954691     1.53852325
O       1.74363200     8.31563403     3.84100000    -1.96276365    -0.86225525    -2.15023623
O       1.56390197     3.82123401     3.79057501    -0.14479353    -0.17176492     0.06232408
O       2.95874103     1.43413898     3.26668800     0.08569979     0.03238074    -0.29242967
O       0.10916900     6.02201700     3.36698900    -0.25477045     1.02233373    -0.85487541
O       0.05313702     1.42978100     3.25750402    -0.49359234    -0.22379353    -0.02286534
O       2.90411702     7.89168198     1.26706201     1.35416351    -1.75049690     2.22360422
O       2.85014798     3.44174502     1.66091599     1.17092195    -0.91517371    -1.21196012
O       0.02675700     7.75515298     1.20800302     0.14552475     0.29787732     0.46009600
O       5.92541902     3.18479099     1.33195602     0.21117866    -0.45945888     0.70857290
