# total energy = -39036.05800138 eV

CRYSTAL
PRIMVEC
        7.60600008     0.00000000     0.00000000
        0.00000000     7.60600008     0.00000000
       -3.79573973    -3.79573973     9.71340985
PRIMCOORD
46 1
Ti      1.97464242     4.64726446     6.09156861    -0.15244076     1.10348009    -0.05477532
Ti      3.79969501     6.77853102     1.19689898     0.53499997     1.34861764    -0.21357031
Ti      1.96792642     0.70338944     6.08036662    -0.62399643    -0.69924596     0.05583204
Ti      3.80585601     2.96161298     1.29155900    -0.40882175    -1.93210915    -0.21781880
Ti     -1.84684654     4.78050547     5.99921861    -0.16371017     0.42849636     0.56286868
Ti      0.00508201     6.72861801     1.12763698    -0.92137341     0.98542913     0.38222805
Ti     -1.91059256     0.90534343     6.09261665     0.94387160     0.05976069     0.37464201
Ti     -0.15625900     3.01495902     1.25652799     0.59612437    -1.78656512    -0.35522966
Ti      3.80019244     1.00631145     8.52746664     0.83230240    -0.63815395    -1.26183208
Ti      5.64521099     2.83929000     3.79099100    -0.52327317    -0.48385583     0.13316674
Ti      3.87250943    -2.75754154     8.45375664     0.18678609     0.13813591     0.86281678
Ti      5.69072299    -0.97166098     3.58516603     0.50686309     0.80726216    -0.11951366
Ti      0.02563345     1.07548243     8.41024965    -0.79296913    -0.00373427    -0.23488502
Ti      1.77969300     2.71793400     3.51817600     0.26647437    -0.28169788     0.09671748
Ti      0.01966147    -2.81813053     8.44680765    -0.19606006    -0.60913159     1.17904304
Ti      1.86066500    -1.07918599     3.51809000    -0.20625474    -0.28430935     1.54461317
O       1.88509346    -1.11139653     5.82239361     0.08603480     0.20485349    -1.61848921
O       3.80528598     0.98551002     1.00702198    -0.82679664     0.43066842    -1.94375625
O      -1.99146555     2.90390747     5.79011962     0.06939050    -1.54851173    -2.28183408
O      -0.02269498     4.78641997     0.83519500    -0.42458365     0.56179679    -0.19665964
O      -1.75736357    -0.94761358     5.69010263    -0.31092182    -1.35953738     0.17477723
O       0.00356798     1.03731499     0.69980299     0.25780487    -1.02275693     0.21300158
O       3.74144445     2.83651346     8.91322860    -0.01743646     1.02636471     0.12490912
O       5.54066001     4.81583800     4.03749399    -0.08591627    -1.34646666     0.27129185
O       3.99439345    -0.83464656     8.96219660    -0.30125293    -0.71061487    -0.43999639
O      -1.59951201     0.78544001     4.18689602    -0.91590982     2.76730584    -1.21839945
O       0.15443345     2.91171543     8.87666563     0.08923942     0.20337279     0.73289760
O       1.85458401     4.46323100     4.08557498     0.40994995     1.63152060     0.65408169
O      -0.10466057    -0.66549056     9.11907760     0.10969076    -0.80298667    -0.50120975
O       1.71069199     0.91684499     4.14172000     0.04987248    -0.39965140    -0.14490846
O       1.89003746     0.98776744     7.97802264     1.48479591     0.15178102     0.68102609
O       3.79311300     2.73160402     3.22523898     0.14473619     0.36128101     0.93009768
O       1.97489045    -2.70576356     8.03731061    -0.50463832    -0.31349858     0.35788432
O       3.75017000    -0.84469998     3.17279000     0.43028302    -0.51304814     0.52771449
O      -1.86159455     1.20571544     8.03459661    -0.97947600    -0.17279388     0.84300513
O      -0.20547900     3.09216698     3.24455802     1.03493137    -0.66554804    -0.15668668
O      -1.80833953    -3.11629154     8.13843161    -0.57437592     1.51106823    -0.27329448
O      -0.01032398    -1.19677901     3.22481902     0.03546272     0.43570367    -0.68135365
O       3.87960744     4.70529546     6.43012765    -0.80980704    -0.06439716     0.50402305
O       5.70215898     6.94325500     1.52123801     0.67957367    -1.55336340     1.11932915
O       3.90482242     0.63222245     6.50565262    -1.95624591     0.75883258     0.00654140
O       5.63807101     2.68291897     1.54641801     0.16997055     1.05318749     0.31716935
O      -0.01784153     4.60914343     6.42241663     1.50256327    -0.06667233     0.71227092
O       1.90964199     6.44465499     1.59408302    -0.23644696     0.27505003    -0.09541162
O      -0.02458753     0.95143043     6.50937760     1.49764295     0.06938227    -0.77492872
O       1.80739802     2.63930799     1.70082601     0.01334223     0.94529934    -0.57739594
