# total energy = -19518.98280992 eV

CRYSTAL
PRIMVEC
        7.60600008     0.00000000     0.00000000
        0.00000000     7.60600008     0.00000000
       -1.89786986    -1.89786986     4.85670466
PRIMCOORD
23 1
Ti      3.78327300     6.62771799     1.24425801    -0.53756388    -0.25923414    -0.42868302
Ti      3.72933100     2.78022298     1.16808099     1.18916985     0.59184631     1.14212507
Ti     -0.05842000     6.66669200     1.11563302     0.33970096    -0.14170460     0.11868834
Ti      0.03381702     2.81660899     1.16153999    -1.01921730     0.50761514     0.87988608
Ti      5.68854225     2.84285221     3.73389082    -0.60046851     0.13201386    -0.66126587
Ti      5.71332621    -0.91152480     3.57707083    -0.60014429    -0.34845660     0.36660345
Ti      2.09999922     2.84840021     3.71910280     0.41622962     0.75230146     0.45104520
Ti      1.82056220    -0.96415375     3.59666780     0.57809502    -0.65268712    -0.36774399
O       3.86197801     4.70610801     0.84788700    -0.21752055     0.31888864    -0.21551663
O       3.60726098     0.93039902     0.72840402    -0.04196865     0.62178965     0.34638737
O      -0.23707998     4.72160698     0.85743098     0.79727085     0.93084588    -0.22821454
O       0.09895800     1.00759698     0.77864702     0.01759329    -1.62092894    -0.18099442
O       5.76443521     4.72258421     3.98881280     0.45678390     0.64854919     0.64754568
O       5.62661020     0.92187021     4.11349082     0.64781308     0.50751101    -1.00278897
O       1.91789922     4.74182224     4.04250683    -0.49962801     0.05785884     0.27749233
O       2.12411023     0.95953922     4.01524880    -1.09416010    -0.70781082     0.57244836
O       3.90329321     2.98979622     3.37301881    -0.98030106    -0.55610051    -1.46078000
O       3.79119621    -1.00709077     3.19947080    -0.31714569    -0.03925022    -0.09260063
O      -0.05605776    -0.97036079     3.13745080     0.45291490     0.35447684     0.37371770
O       5.64098101     6.88665098     1.58744899     0.44614878    -0.28579622    -0.04336090
O       5.79096397     2.77674199     1.77270600     0.14698231    -0.35889271    -0.13555272
O       1.81487699     6.56700299     1.56402099     0.47035882     0.08594995     0.40534408
O       1.87490902     3.02795799     1.77858802    -0.05094334    -0.53878464    -0.76378170
