# total energy = -19905.10436016 eV

CRYSTAL
PRIMVEC
        6.98338427     0.00000000     0.00000000
        0.00003475     6.72458174     0.00000000
        0.00000000     0.00000000    11.93337801
PRIMCOORD
24 1
Ti      2.53116155     3.98498085     4.42719824     0.23169479    -0.93160615     0.79935704
Ti      4.45225748     2.73960076     7.50618019    -0.23169479     0.93160615    -0.79935704
Ti      6.02273198     2.73960307     1.53944331     0.23107644     0.93164600    -0.79979464
Ti      0.96068711     3.98497888    10.39393532    -0.23107644    -0.93164600     0.79979464
Ti      2.53114424     0.62269012     1.53949118     0.23169479    -0.93160615    -0.79935704
Ti      4.45227485     6.10189170    10.39388745    -0.23169479     0.93160615     0.79935704
Ti      0.96066974     0.62268767     7.50613238    -0.23107644    -0.93164600    -0.79979464
Ti      6.02274929     6.10189421     4.42724611     0.23107644     0.93164600     0.79979464
O       2.21029747     2.36783947     6.08951161     1.14544977     1.37771971    -0.47710488
O       4.77312162     4.35674214     5.84386681    -1.14544977    -1.37771971     0.47710488
O       1.28146006     2.36786666     0.12286082    -1.14572513     1.37823162    -0.47765432
O       5.70195910     4.35671502    11.81051733     1.14572513    -1.37823162     0.47765432
O       4.77310424     0.99445120     0.12282213    -1.14544977    -1.37771971    -0.47710488
O       2.21031485     5.73013041    11.81055602     1.14544977     1.37771971     0.47710488
O       5.70194172     0.99442408     6.08955037     1.14572513    -1.37823162    -0.47765432
O       1.28147723     5.73015760     5.84382812    -1.14572513     1.37823162     0.47765432
O       0.25374376     4.09027183     3.22350319    -0.18464641    -0.11341474     0.10584387
O       6.72967533     2.63430984     8.70987523     0.18464641     0.11341474    -0.10584387
O       3.74544208     2.63424725     2.74322396    -0.18482073     0.11346745    -0.10591766
O       3.23797695     4.09033442     9.19015432     0.18482073    -0.11346745     0.10591766
O       0.25372638     0.72798089     2.74318581    -0.18464641    -0.11341474    -0.10584387
O       6.72969264     5.99660078     9.19019240     0.18464641     0.11341474     0.10584387
O       3.23795964     0.72804348     8.70991331     0.18482073    -0.11346745    -0.10591766
O       3.74545946     5.99653812     3.22346511    -0.18482073     0.11346745     0.10591766
