# total energy = -19073.74619163 eV

CRYSTAL
PRIMVEC
        5.93400000     0.00000000     0.00000000
        0.00000000     9.29699974     0.00000000
        0.00000000     0.00000000     4.64899994
PRIMCOORD
22 1
Ti      4.40723500     6.88484701     2.42321502    -0.76443605     0.72668221    -0.92864038
Ti      4.37839701     2.46099802     2.10110399     1.68813863    -1.08379520     0.19330769
Ti      1.51491403     7.26602503     2.64877699     0.94946813    -0.27832819    -1.25979551
Ti      1.59458002     2.30748502     2.19627302    -0.98320641     0.86073752    -0.11243310
Ti      3.00500599     4.51263499     4.45943802    -0.48567668     0.56845852     0.70950929
Ti      2.97809198     0.07041201     0.02734201     2.09752808     0.51634635     0.52079822
Ti      5.78375102     4.62872801     4.39040801     0.58335704    -0.44118347     1.04591590
Ti      0.02700201     9.08982701     0.24915300    -2.43772629     1.06045806     0.77801276
O       4.35869198     5.48178799     0.87459701     0.05559756     0.19814574     0.41574162
O       4.47326399     0.82083102     1.06907097     0.98034709     0.40934754    -0.80495922
O       1.52402699     0.68757799     1.16923100    -1.01054676     1.48321648    -0.26303501
O       4.52530201     8.28171398     3.88749002    -0.30184788     1.06740236    -0.08981098
O       4.37528100     3.94475901     3.42570000     0.58751914    -1.28621977    -0.78027482
O       1.52593700     8.26980997     4.13472300     0.39267573    -0.31877397    -1.42731554
O       1.46200302     3.95787900     3.49694498    -0.28683932    -0.79164553     0.47561929
O       2.89463401     6.07644901     3.33292200    -0.49057541     0.57547326    -0.69148688
O       2.95567899     1.50110398     3.15285599     0.53590269    -0.61796385     1.92116730
O       0.05437598     6.23223499     3.34170703     0.16366980    -1.43035973     0.45800003
O       3.08096600     8.11607001     1.66396500    -0.64222736    -1.96379775     0.28237691
O       3.03162900     2.92474901     1.02430401    -1.57285932     1.71172619    -0.89591074
O       5.91708401     7.77516699     1.45879801     0.69599583    -0.89826896     0.96404217
O       0.00406599     3.23654300     1.29815900     0.24574125    -0.06765758    -0.51082877
