# total energy = -19517.87760329 eV

CRYSTAL
PRIMVEC
        5.93400000     0.00000000     0.00000000
        0.00000000     9.29699974     0.00000000
        0.00000000     0.00000000     4.64899994
PRIMCOORD
23 1
Ti      4.43265498     6.96351201     2.19348002    -0.06298048     1.02815780    -0.60395801
Ti      4.51146101     2.30279799     2.35588098     0.76665003     0.45338876    -0.14252453
Ti      1.40950202     6.99769898     2.34866300     0.03810556     0.81189580    -0.72412525
Ti      1.50758101     2.33885401     2.38878300    -0.73044811     0.18349893    -0.71656723
Ti      2.92635501     4.52247499     0.12802401     0.64355944    -0.25229011     0.63569624
Ti      2.90235999     0.16648001     4.62689801     1.00068786    -1.40846343     0.44934827
Ti      0.01126899     4.62434701     4.63741102    -0.92955621     0.04976655     0.20885439
Ti      5.89156099     9.27678501     4.58489801    -0.38991977    -0.29003494     0.03243525
O       4.33990698     5.52054498     0.96755202     0.15946425     0.27633584    -0.58630584
O       4.54264098     0.92583000     0.90148599    -0.36154738    -0.14531521     0.17157029
O       1.49827098     5.52310101     0.90823998     0.26174328     0.42868662    -0.10621025
O       1.52340801     0.98976202     0.81273000    -0.11017644     0.31592519     0.98573612
O       4.56188499     8.50984700     3.58508803    -0.41229557    -0.64254977     0.32084603
O       4.50881200     3.54609502     3.93017599    -0.57932812     1.10335385    -0.88225741
O       1.63714201     8.37306500     3.71439000    -0.83946138    -0.28505137    -0.33406973
O       1.40332399     3.68476099     3.83103400     1.21565068     0.21572541    -0.77060953
O       3.00440500     1.47675802     3.22599602    -0.17086067    -0.47800425     0.09545893
O       5.87021001     6.02999302     3.11250401     0.24414459    -0.46330705     1.15544750
O       0.05866099     1.48340898     3.28744498     0.44740811    -0.47841846    -0.62722753
O       2.90258198     7.84255798     1.31501399     0.51283088    -0.37750853     0.97741834
O       3.07746602     3.25605000     1.48278799    -0.91561414    -0.08297724     0.18978476
O       5.92822599     7.82130802     1.35536798     0.30210139     0.61645512    -0.47206731
O       0.06376501     3.31338398     1.44905802    -0.09015808    -0.57926950     0.74332651
