# total energy = -19933.42958890 eV

CRYSTAL
PRIMVEC
        6.96397489     0.00000000     0.00000000
        0.00002451     3.99095595     0.00000000
        0.00000000     0.00000000    10.53591194
PRIMCOORD
24 1
Ti      2.52412056     2.36503692     3.90874833     0.04198664     0.77016884     0.59634446
Ti      4.43987900     1.62591935     6.62716405    -0.04198664    -0.77016884    -0.59634446
Ti      6.00598866     1.62592076     1.35916580     0.04198202    -0.77045654    -0.59580556
Ti      0.95801090     2.36503562     9.17674669    -0.04198202     0.77045654     0.59580556
Ti      2.52410842     0.36955900     1.35920803     0.04198664     0.77016884    -0.59634446
Ti      4.43989114     3.62139738     9.17670446    -0.04198664    -0.77016884     0.59634446
Ti      0.95799876     0.36955743     6.62712182    -0.04198202     0.77045654    -0.59580556
Ti      6.00600080     3.62139890     3.90879055     0.04198202    -0.77045654     0.59580556
O       2.20415072     1.40528350     5.37639539     2.23570615    -0.13890107     0.39505940
O       4.75984884     2.58567272     5.15951699    -2.23570615     0.13890107    -0.39505940
O       1.27789481     1.40529958     0.10847310    -2.23573546    -0.13980610     0.39587959
O       5.68610480     2.58565670    10.42743895     2.23573546     0.13980610    -0.39587959
O       4.75983669     0.59019475     0.10843893    -2.23570615     0.13890107     0.39505940
O       2.20416286     3.40076153    10.42747312     2.23570615    -0.13890107    -0.39505940
O       5.68609265     0.59017867     5.37642957     2.23573546     0.13980610     0.39587959
O       1.27790679     3.40077761     5.15948276    -2.23573546    -0.13980610    -0.39587959
O       0.25303221     2.42752567     2.84601276    -0.62200614     0.32064959     1.03559729
O       6.71096735     1.56343060     7.68989962     0.62200614    -0.32064959    -1.03559729
O       3.73502825     1.56339329     2.42197689    -0.62341690    -0.32044390    -1.03660336
O       3.22897131     2.42756299     8.11393527     0.62341690     0.32044390     1.03660336
O       0.25302007     0.43204764     2.42194327    -0.62200614     0.32064959    -1.03559729
O       6.71097949     3.55890863     8.11396889     0.62200614    -0.32064959     1.03559729
O       3.22895917     0.43208496     7.68993319     0.62341690     0.32044390    -1.03660336
O       3.73504039     3.55887132     2.84597913    -0.62341690    -0.32044390     1.03660336
