# total energy = -19072.80624170 eV

CRYSTAL
PRIMVEC
        5.93400000     0.00000000     0.00000000
        0.00000000     9.29699974     0.00000000
        0.00000000     0.00000000     4.64899994
PRIMCOORD
22 1
Ti      4.40108300     7.04044200     2.34948899    -0.32089333    -0.31385596    -0.10549780
Ti      4.44425301     2.38250500     2.15324800     1.56878849    -0.89555387    -0.83952591
Ti      1.48405098     7.18442701     2.56446598     0.41374773    -0.63347300     1.00969573
Ti      1.69892002     2.36408301     2.21492901    -2.10357763     0.68008866     0.03684726
Ti      3.06221799     4.42556401     4.40151999    -1.88450027     1.20689735     0.67685447
Ti      2.98247002     9.21415101     0.06842701     0.46165614     1.09560763     0.54111689
Ti      5.75895600     4.67411602     4.49986600     1.23868314    -0.63116209     0.10489899
Ti      0.02782599     9.25900101     0.29700502    -1.11331302     0.65211094     0.88723712
O       4.33645299     5.32364098     0.87420600     0.38647834     1.41486908     0.83960588
O       4.28109602     0.54929699     1.28007897     1.58891766     2.03719223    -0.82183620
O       1.56845301     0.82410699     1.16873098    -1.06089335     0.19351878    -0.73964572
O       4.31873503     8.39897002     3.78065400     1.44874055     0.11679600    -0.13742089
O       4.43662799     4.02618198     3.38929800     1.47109219    -2.13762393    -1.64646823
O       1.43332802     8.26300301     4.12536900    -0.59961927    -0.12216858    -1.80260032
O       1.46987601     3.99391402     3.60444300    -0.76321760    -0.82726998    -0.44246079
O       2.99432301     6.12576500     3.15838198    -0.83051239    -0.67031435     0.79604520
O       3.08155201     1.70219102     3.21194901    -0.88019590    -1.27073324     2.41659361
O       5.84863101     6.18935999     3.27458200     0.74059574    -0.77801559     0.45196925
O       2.86734598     7.87125002     1.43928301    -0.17795152    -1.02204063     0.27468931
O       3.04065698     2.96174898     1.04853498    -0.18277645     1.34037905    -0.43514754
O       0.04374100     8.04216798     1.69719601    -0.05390268    -0.34138118    -1.06049174
O       5.88511000     2.95629803     1.11847602     0.65265421     0.90613294    -0.00445829
