# total energy = -19950.98449741 eV

CRYSTAL
PRIMVEC
        4.85292205     0.00000000     0.00000000
        0.77043914     5.10719161     0.00000000
        0.00000000     0.00000000     8.71032974
PRIMCOORD
24 1
Ti      2.21551234     3.02651697     3.23147024     1.50346676    -0.30505893     0.15393715
Ti      3.40784879     2.08067450     5.47885970    -1.50346676     0.30505893    -0.15393715
Ti      4.49920965     2.08067622     1.12365990    -2.23434707    -0.66712181     1.56123484
Ti      1.12415149     3.02651544     7.58667013     2.23434707     0.66712181    -1.56123484
Ti      1.83029287     0.47292125     1.12369483     1.50339091    -0.30568011    -0.16607327
Ti      3.79306827     4.63427036     7.58663520    -1.50339091     0.30568011     0.16607327
Ti      0.73893200     0.47291938     5.47882477     2.23439001     0.66549945     1.57665581
Ti      4.88442914     4.63427223     3.23150517    -2.23439001    -0.66549945    -1.57665581
O       1.80726517     1.79832892     4.44481463    -1.35888329    -0.85866161    -0.53563709
O       3.81609596     3.30886254     4.26551525     1.35888329     0.85866161     0.53563709
O       1.16179675     1.79834957     0.08967772     1.39186721    -1.26046271    -0.08440112
O       4.46156443     3.30884194     8.62065197    -1.39186721     1.26046271     0.08440112
O       3.43087648     0.75526668     0.08964947     1.35870845     0.85863385    -0.53517738
O       2.19248464     4.35192479     8.62068022    -1.35870845    -0.85863385     0.53517738
O       4.07634496     0.75524608     4.44484293    -1.39235264     1.26063420    -0.08440909
O       1.54701613     4.35194544     4.26548700     1.39235264    -1.26063420     0.08440909
O       0.64494263     3.10648344     2.35287741    -0.78087877    -0.72318037    -1.35699173
O       4.97841849     2.00070798     6.35745253     0.78087877     0.72318037     1.35699173
O       2.90459569     2.00066048     2.00231527     0.38734943    -1.36900624    -1.03285880
O       2.71876544     3.10653094     6.70801452    -0.38734943     1.36900624     1.03285880
O       0.25972316     0.55288758     2.00228741    -0.78107186    -0.72339043     1.35709766
O       5.36363797     4.55430384     6.70804233     0.78107186     0.72339043    -1.35709766
O       2.33354596     0.55293508     6.35748028    -0.38761246     1.36892448    -1.03276830
O       3.28981517     4.55425634     2.35284960     0.38761246    -1.36892448     1.03276830
