# total energy = -19933.40863626 eV

CRYSTAL
PRIMVEC
        6.86304771     0.00000000     0.00000000
        0.00002415     3.93311601     0.00000000
        0.00000000     0.00000000    10.38321756
PRIMCOORD
24 1
Ti      2.48753910     2.33076103     3.85209980    -0.04320740     0.97290914     0.21544130
Ti      4.37553292     1.60235530     6.53111820     0.04320740    -0.97290914    -0.21544130
Ti      5.91894534     1.60235669     1.33946774    -0.04201081    -0.97331795    -0.21447251
Ti      0.94412668     2.33075974     9.04375036     0.04201081     0.97331795     0.21447251
Ti      2.48752714     0.36420308     1.33950936    -0.04320740     0.97290914    -0.21544130
Ti      4.37554489     3.56891336     9.04370874     0.04320740    -0.97290914     0.21544130
Ti      0.94411472     0.36420152     6.53107658     0.04201081     0.97331795    -0.21447251
Ti      5.91895731     3.56891486     3.85214142    -0.04201081    -0.97331795     0.21447251
O       2.17220650     1.38491707     5.29847662     2.44025780    -0.40605370     0.83975269
O       4.69086552     2.54819921     5.08474138    -2.44025780     0.40605370    -0.83975269
O       1.25937460     1.38493292     0.10690103    -2.43994027    -0.40613623     0.83913562
O       5.60369748     2.54818341    10.27631664     2.43994027     0.40613623    -0.83913562
O       4.69085355     0.58164120     0.10686735    -2.44025780     0.40605370     0.83975269
O       2.17221847     3.35147513    10.27635032     2.44025780    -0.40605370    -0.83975269
O       5.60368551     0.58162535     5.29851030     2.43994027     0.40613623     0.83913562
O       1.25938640     3.35149098     5.08470765    -2.43994027    -0.40613623    -0.83913562
O       0.24936508     2.39234414     2.80476620    -0.26885573     0.23240364     1.15874752
O       6.61370695     1.54077219     7.57845180     0.26885573    -0.23240364    -1.15874752
O       3.68089740     1.54073541     2.38687578    -0.26802963    -0.23215219    -1.15931779
O       3.18217462     2.39238092     7.99634200     0.26802963     0.23215219     1.15931779
O       0.24935311     0.42578608     2.38684264    -0.26885573     0.23240364    -1.15874752
O       6.61371892     3.50733025     7.99637514     0.26885573    -0.23240364     1.15874752
O       3.18216266     0.42582286     7.57848489     0.26802963     0.23215219    -1.15931779
O       3.68090937     3.50729347     2.80473306    -0.26802963    -0.23215219     1.15931779
