# total energy = -19073.57001770 eV

CRYSTAL
PRIMVEC
        7.60600008     0.00000000     0.00000000
        0.00000000     7.60600008     0.00000000
       -1.89786986    -1.89786986     4.85670466
PRIMCOORD
22 1
Ti      3.91811001     6.54971202     1.32859500     0.18346679     1.63484169     0.00085541
Ti      3.61330000     2.77463698     1.16189999     0.58407258    -0.59273694     0.42388019
Ti     -0.02010403     6.77785499     0.97312701    -0.42658165    -1.17258006     0.67278878
Ti     -0.17682098     2.83835701     1.01016402    -1.11912166     1.46811922     1.16072290
Ti      5.62627623     3.03027923     3.50702279    -0.81881053    -0.73262378    -0.21337285
Ti     -1.15789078    -0.68657176     3.91006779    -0.85563285    -1.59338804    -1.54475381
Ti      1.77309924     2.72932221     3.72807680     0.70663608    -0.04616186     0.46468593
Ti      1.82284221    -1.10698076     3.80617283     0.23995858     1.05079097    -0.01240018
O       3.85969498     4.76509900     0.90208602    -0.78417184    -1.37262558    -0.70486382
O       4.03235298     0.83733198     0.98383301    -0.90080381    -0.27836573    -0.55448997
O      -0.22328999     4.80318002     0.64253300     0.50803038     0.85042148    -0.21948127
O       7.12871702     1.09609500     0.51830298     0.64836484    -2.44065658     1.77587395
O       5.39775522     4.94570725     3.90477279     1.48719424    -1.05399019     0.48961433
O       5.64050121     0.91332025     3.95298083    -0.31484661     2.34784075    -0.73150252
O       2.14150720     4.67614520     4.25326479    -0.86409796     0.04713348    -0.90678600
O       2.17231823     0.88590024     4.11954583    -1.06254014    -0.47286796    -0.71213362
O       3.57908922     2.84095321     3.07246582    -0.37399769     0.09089650     0.61445969
O      -0.14341677     2.57049521     3.19450182     1.55115611     1.46439472    -0.24982493
O       5.99751598     6.65866200     2.12654699    -0.06191347     0.32109465    -1.25173715
O       5.48647702     2.82476398     1.56925000     1.90385220     0.82344751     0.92350177
O       1.96514602     6.68764001     1.87893500    -0.11558501    -0.30855486    -0.12083058
O       1.71495800     2.63617198     1.12602299    -0.11462831    -0.03442940     0.69579400
