# total energy = -19907.01025151 eV

CRYSTAL
PRIMVEC
        7.79468340     0.00000000     0.00000000
        0.00003068     5.53060010     0.00000000
        0.00000000     0.00000000    12.11004288
PRIMCOORD
24 1
Ti      2.82521613     3.27742848     4.49273953     0.56575166    -0.68901348     1.59811476
Ti      4.96949808     2.25317162     7.61730348    -0.56575166     0.68901348    -1.59811476
Ti      6.72242347     2.25317355     1.56223356     0.56487672     0.68885973    -1.59881358
Ti      1.07229075     3.27742681    10.54780952    -0.56487672    -0.68885973     1.59881358
Ti      2.82520080     0.51212856     1.56228211     0.56575166    -0.68901348    -1.59811476
Ti      4.96951342     5.01847174    10.54776097    -0.56575166     0.68901348     1.59811476
Ti      1.07227541     0.51212650     7.61725487    -0.56487672    -0.68885973    -1.59881358
Ti      6.72243881     5.01847380     4.49278808     0.56487672     0.68885973     1.59881358
O       2.46707738     1.94741834     6.17966220     0.71397273     1.49073594    -1.61892810
O       5.32763684     3.58318183     5.93038081    -0.71397273    -1.49073594     1.61892810
O       1.43033166     1.94744063     0.12467968    -0.71377373     1.49082978    -1.61934539
O       6.36438268     3.58315954    11.98536293     0.71377373    -1.49082978     1.61934539
O       5.32762157     0.81788171     0.12464037    -0.71397273    -1.49073594    -1.61892810
O       2.46709265     4.71271839    11.98540224     0.71397273     1.49073594     1.61892810
O       6.36436735     0.81785949     6.17970145     0.71377373    -1.49082978    -1.61934539
O       1.43034680     4.71274074     5.93034149    -0.71377373     1.49082978     1.61934539
O       0.28321769     3.36402449     3.27122472    -1.88493608     0.54440276     0.14594693
O       7.51149653     2.16657567     8.83881829     1.88493608    -0.54440276    -0.14594693
O       4.18056811     2.16652410     2.78383530    -1.88541533    -0.54395101    -0.14607368
O       3.61414610     3.36407606     9.32620751     1.88541533     0.54395101     0.14607368
O       0.28320235     0.59872438     2.78379658    -1.88493608     0.54440276    -0.14594693
O       7.51151186     4.93187572     9.32624616     1.88493608    -0.54440276     0.14594693
O       3.61413083     0.59877595     8.83885687     1.88541533     0.54395101    -0.14607368
O       4.18058338     4.93182422     3.27118607    -1.88541533    -0.54395101     0.14607368
