# total energy = -4984.18848132 eV

CRYSTAL
PRIMVEC
        2.67346698     0.00000000     0.00000000
        0.41784730     4.16802960     0.00000000
       -0.00000278    -0.00005436     4.19418094
PRIMCOORD
6 1
Ti      1.54565580     2.08398762     2.09709047     0.00000000     0.00000000     0.00000000
Ti      0.00000000     0.00000000     0.00000000     0.00000000     0.00000000     0.00000000
O       1.41816523     0.81227702     0.81738408    -2.49044755     1.95018787     2.02677515
O       1.67314641     3.35569821     3.37679681     2.49044755    -1.95018787    -2.02677515
O       0.12748942     1.27168856     2.91447540     2.48981223    -1.94853671     2.02504557
O       0.29035528     2.89628658     1.27970549    -2.48981223     1.94853671    -2.02504557
