# total energy = -4984.94364315 eV

CRYSTAL
PRIMVEC
        3.42710906     0.00000000     0.00000000
        0.34184831     3.41001705     0.00000000
       -1.88450909    -1.70503603     4.37924491
PRIMCOORD
6 1
Ti      0.25625492     2.55764250     1.09481101     0.00172804    -0.00182883     0.00131332
Ti      1.62819308    -0.85266175     3.28443337    -0.00172804     0.00182883    -0.00131332
O       0.08549821     0.85249887     0.71334314     0.00088215     0.00379109     2.32024354
O       1.79894968     0.85248179     3.66590134    -0.00088215    -0.00379109    -2.32024354
O      -0.08547924    -0.85248171     2.90296550     0.00379752     0.00086543     2.32249969
O       1.96992708     2.55746232     1.47627899    -0.00379752    -0.00086543    -2.32249969
