# total energy = -19910.83291102 eV

CRYSTAL
PRIMVEC
        6.54207484     0.00000000     0.00000000
        2.04289211     6.65630692     0.00000000
        0.00000000     0.00000000    11.84585566
PRIMCOORD
24 1
Ti      3.58180341     3.94452135     4.39472796    -0.29405435    -1.93500781     0.63479378
Ti      5.00316343     2.71178572     7.45112776     0.29405435     1.93500781    -0.63479378
Ti      6.47439375     2.71178801     1.52815257     0.11948795    -0.67741523    -0.12713570
Ti      2.11057320     3.94451931    10.31770328    -0.11948795     0.67741523     0.12713570
Ti      2.56035751     0.61636800     1.52820007    -0.29405435    -1.93500781    -0.63479378
Ti      6.02460936     6.03993927    10.31765579     0.29405435     1.93500781     0.63479378
Ti      1.08912716     0.61636552     7.45108027    -0.11948795     0.67741523    -0.12713570
Ti      7.49583971     6.03994175     4.39477545     0.11948795    -0.67741523     0.12713570
O       2.78994500     2.34379887     6.04484947     1.81728673     2.03612394    -0.66306307
O       5.79502185     4.31250827     5.80100625    -1.81728673    -2.03612394     0.66306307
O       1.91981295     2.34382572     0.12195975    -0.62331534    -0.13799656     1.14868113
O       6.66515397     4.31248147    11.72389565     0.62331534     0.13799656    -1.14868113
O       4.77357592     0.98435472     0.12192131    -1.81728673    -2.03612394    -0.66306307
O       3.81139093     5.67195241    11.72393408     1.81728673     2.03612394     0.66306307
O       5.64370804     0.98432792     6.04488790     0.62331534     0.13799656     1.14868113
O       2.94125875     5.67197929     5.80096782    -0.62331534    -0.13799656    -1.14868113
O       1.48029150     4.04874325     3.19986114     0.55018594     1.98268740     2.00886638
O       7.10467535     2.60756389     8.64599458    -0.55018594    -1.98268740    -2.00886638
O       4.30900937     2.60750182     2.72310439     0.62246019     1.83847648     1.10525955
O       4.27595748     4.04880532     9.12275114    -0.62246019    -1.83847648    -1.10525955
O       0.45884550     0.72058971     2.72306655     0.55018594     1.98268740    -2.00886638
O       8.12612128     5.93571743     9.12278897    -0.55018594    -1.98268740     2.00886638
O       3.25451155     0.72065177     8.64603235    -0.62246019    -1.83847648     1.10525955
O       5.33045530     5.93565537     3.19982331     0.62246019     1.83847648    -1.10525955
