# total energy = -19960.96931866 eV

CRYSTAL
PRIMVEC
        7.60600008     0.00000000     0.00000000
        0.00000000     7.60600008     0.00000000
       -1.89786986    -1.89786986     4.85670466
PRIMCOORD
24 1
Ti      3.87567799     6.44816000     1.25229600    -0.63405870     2.36201910    -0.77781222
Ti      3.77550500     2.79381701     1.25811299    -0.18039355    -2.15788295    -1.28537028
Ti      0.01112299     6.74699300     1.16717901     0.66851407    -0.44254564     1.48848133
Ti     -0.01326002     2.95016899     1.17999801     0.28345112     0.14966783     0.40202375
Ti      5.63818420     2.91405322     3.54509381     0.35303265    -0.62505238     0.82868665
Ti      5.70986624    -0.88663579     3.66761380     0.33956778     0.56328495    -0.13868587
Ti      1.85101222     2.77003324     3.57571180    -0.24120608     0.25948585     0.64928375
Ti      1.95060423    -0.98497275     3.60489079    -0.57011097    -0.38915409     1.49036210
O       3.79769398     4.60507998     0.90303098     0.38784720     1.07987067    -0.81373800
O       3.81326301     0.80021602     0.84770100     0.22814461     1.80705245    -0.05375742
O       0.02711002     4.78510201     0.74706000    -0.13396224     0.98738883    -0.09460840
O      -0.11604301     1.05908402     0.80108000     0.77976266    -1.66505808     0.05102819
O       5.61092824     4.84011622     4.10508283     0.24931405    -0.68732375    -0.56566065
O       5.64000024     1.04132822     4.13331481     0.29324085     0.08828272    -1.68109277
O       1.88209721     4.75895520     4.13954783     0.33505215    -1.77508180    -0.19272354
O       1.85894020     0.91903621     4.01388681     0.12574473     0.70963399     0.75370040
O       3.70138923     2.93736121     3.27448982     2.19468085    -0.19463490    -0.58840360
O       3.80653225    -0.77839677     3.23029780     1.51601503    -0.62007215     0.08640967
O       0.05451124     2.92102222     3.16693883    -2.03653146     0.21254932     0.35799077
O       0.09978224    -0.90043377     3.28382779    -1.72955757     0.13444638    -0.58542241
O       5.79018503     6.51804902     1.74939400    -0.09167272     0.10434029    -0.66238764
O       5.69512500     2.66021700     1.56406401    -0.36106735     1.06771680     1.53586910
O       1.99262498     6.61834398     1.66505997    -1.41959837    -0.33741242    -0.71109258
O       1.90184198     2.91180703     1.57023501    -0.35620899    -0.63152128     0.50691966
