# total energy = -39037.27627967 eV

CRYSTAL
PRIMVEC
        7.60600008     0.00000000     0.00000000
        0.00000000     7.60600008     0.00000000
       -3.79573973    -3.79573973     9.71340985
PRIMCOORD
46 1
Ti      1.92228944     4.74947144     6.22867765     1.23107499     0.43540234     0.47320426
Ti      3.80893101     6.90038598     1.35828798     1.15338316    -0.17206317    -1.19878244
Ti      1.88946944     0.79093843     6.07182565    -0.21223925    -0.46751260    -0.14231704
Ti      3.63433501     2.82867598     1.28202502     2.31331313     0.17360661    -1.23915494
Ti     -1.82993853     4.58891245     6.11813564    -0.80627460     1.54749717     0.51201662
Ti      0.06951002     6.59627300     1.19710298    -0.72649195     0.22686137     0.04155933
Ti     -1.99395157     0.90662843     5.91188764     0.18214987    -1.72560501     1.06193876
Ti     -0.05314601     2.87997199     1.14119402    -2.19688634    -0.12966438    -1.40240797
Ti      3.73630947     1.08087745     8.35472461     1.46650688    -1.00641063     1.04193557
Ti      5.64770802     2.79010600     3.57669400     0.04931249    -0.71167262    -1.01510867
Ti      3.89706945    -2.79333953     8.52726862    -0.02106866     1.27750759     0.32842950
Ti      5.75173802    -1.13205698     3.67356498     0.63025244     0.87065761     0.31778178
Ti     -0.04966355     1.06262147     8.30569163    -0.73749628    -0.47120445     0.77293715
Ti      1.79278003     2.84171401     3.54852802    -0.05415594    -1.29918842     0.14899111
Ti      0.09054244    -2.67228457     8.50891062    -0.30556981    -0.13176240     1.13931640
Ti      1.98574800    -1.02238399     3.69227198    -0.89575570     0.36106735     1.68039523
O       1.94849445    -1.04351753     5.83943460     0.07549636     0.43746077    -1.38102204
O       3.93333402     1.07439000     0.87855700    -0.51497261    -0.80710635    -0.86378891
O      -1.71875453     2.68671243     5.64988961    -0.25046282     2.83749390    -0.45258477
O       0.10538099     4.71911302     0.66703898    -0.23681360     2.04684159    -0.23486290
O      -1.92635458    -1.03993654     5.75749060     0.28742579    -0.46081333    -1.49007336
O      -0.12072502     0.95487500     0.82248501     0.69947479    -0.26667749     0.29642208
O       3.90264745     2.94609745     8.84973463    -0.09291327    -1.70964925     0.73204502
O       5.67581802     4.62340999     4.07511500    -0.26814868     0.07107303     0.71907303
O       3.61002143    -0.93741956     8.79800163     0.51633504     0.66459442     0.60071996
O       5.63669103     0.91281398     3.97427397     0.62599700    -0.83432997    -0.02941112
O      -0.12535156     2.81839147     9.04070661     0.33707715    -0.36376752     0.21318644
O       2.06064299     4.45996503     4.35085799    -0.04600914     0.53709928    -1.32786755
O       0.13000043    -0.82847456     8.89355363    -0.62287748     1.03183499     0.18294614
O       1.77943301     1.03448802     4.20561900    -0.11611723    -0.20120407    -1.46010509
O       1.91662645     0.98632543     7.96208864    -0.82621299     0.83711782     1.06095711
O       3.74482499     2.46300497     3.09717602    -0.38427079     1.33125909     0.99755317
O       1.94089547    -2.85544155     8.20472361    -0.88233660    -0.54135523    -0.30715361
O       3.86272902    -0.96287801     3.33810100    -1.04160056    -0.33314207    -0.15750635
O      -1.99534654     0.87932743     7.89417461     0.34128013     0.19154006     0.91740517
O      -0.12231398     2.82509001     3.05729500     0.64531294    -0.14230084     1.22154596
O      -1.87167353    -2.54155356     8.15962061     1.13626784    -1.06573628    -0.42705577
O       0.08648899    -1.16919401     3.24264102     0.17810964     0.13053727     0.00185531
O       3.86160743     4.70500447     6.61961464     0.16789773    -0.99478666    -1.33508489
O       5.72197000     6.53763403     1.71032998     0.12824667    -0.14554352    -0.45863844
O       3.74394243     1.12474947     6.34007062    -0.19969534     0.17140857    -0.21519730
O       5.62965900     3.12012998     1.43849797    -0.78509281     0.02846521     1.41339378
O       0.09349647     4.77199143     6.52797861    -1.23037205    -0.74534997     0.06862457
O       1.98130302     6.72888800     1.63315403    -0.61208784    -0.37018217     0.53697149
O      -0.03284153     0.93407447     6.48767361     0.53213988     0.08696348    -1.25366548
O       1.79147301     3.12501201     1.60929999     1.36886843    -0.19926108    -0.08941632
