# total energy = -4989.80725080 eV

CRYSTAL
PRIMVEC
        3.91766861     0.00000000     0.00000000
        0.77576781     3.84009265     0.00000000
       -2.34675390    -1.92007553     5.02525688
PRIMCOORD
6 1
Ti      0.58169082     2.88021634     1.25631435    -0.00014758     0.00014758     0.00000000
Ti      1.76499171    -0.96019921     3.76894268     0.00014758    -0.00014758     0.00000000
O       0.19398300     0.96001755     0.81857334    -0.00043940    -0.00061012    -0.70694796
O       2.15269940     0.95999948     4.20668375     0.00043940     0.00061012     0.70694796
O      -0.19395729    -0.95999651     3.33120167    -0.00061012    -0.00043940    -0.70694796
O       2.54063957     2.88001345     1.69405537     0.00061012     0.00043940     0.70694796
