# total energy = -19960.60683878 eV

CRYSTAL
PRIMVEC
        5.93400000     0.00000000     0.00000000
        0.00000000     9.29699974     0.00000000
        0.00000000     0.00000000     4.64899994
PRIMCOORD
24 1
Ti      4.45616199     6.93222399     2.30235099     0.74127091     1.63409453     0.30416007
Ti      4.42042702     2.26784599     2.34590101    -0.79383611    -0.10459097    -0.45357568
Ti      1.52903099     6.91792202     2.34934400    -0.71460214     1.24767918    -0.37997756
Ti      1.39487101     2.34250502     2.29523499     0.69635115    -0.16508468    -0.37291628
Ti      3.01630202     4.65674101     0.00673801    -1.00237605    -0.99778637     0.33191077
Ti      2.96880000     0.08644603     4.63695598    -0.49794728    -0.52037553    -0.22995595
Ti      5.93350501     4.59306702     4.59630199     1.14443238    -0.34637478    -0.16214334
Ti      0.00250698     9.28613103     0.02594403     0.32062722    -0.54560398    -0.13125744
O       4.50848301     5.42755801     0.88240301    -0.47978680     1.38354378     1.29644094
O       4.42042898     0.87305901     0.90158399     0.34878467     0.73406642     0.73469686
O       1.45474102     5.48318200     0.91528402     0.55514457     0.43071033     0.54580041
O       1.55971602     0.98813601     0.92359602    -0.72313486    -0.64004012    -0.24587469
O       4.40956602     8.36154301     3.77751698     0.57596537     0.37589516    -0.14840362
O       4.50846100     3.83846100     3.64357698    -0.71560384    -0.68158273    -0.47073548
O       1.44642701     8.50074700     3.75925301     0.20428811    -0.93423973    -0.06514021
O       1.51404999     3.74797302     3.63019202    -0.11812038     1.05734908     0.75272390
O       2.97326800     6.18275803     3.33679700     0.10913977    -0.48400675    -0.46694645
O       2.87915801     1.50423301     3.20839299     1.33857105    -0.57699124     0.44355583
O       0.00620000     6.19348302     3.34123299    -0.04975909    -0.76982920    -0.54216153
O       0.10940602     1.39013699     3.32092502    -1.46083914     0.85601620    -0.79945423
O       2.93689802     7.99884402     1.39923498     0.12928694    -2.05147035     1.13181572
O       2.97588102     3.21259000     1.39174998     0.59093049     0.56806669    -0.49949200
O       0.02262598     7.94350499     1.57176301    -0.37100544    -0.40288379    -0.87746667
O       5.84266898     3.04640501     1.27343298     0.17221821     0.93343832     0.30439636
