# total energy = -4989.58296454 eV

CRYSTAL
PRIMVEC
        3.98545101     0.00000000     0.00000000
        0.59446499     3.94086680     0.00000000
       -2.28999391    -1.97046430     5.10076968
PRIMCOORD
6 1
Ti      0.44570381     2.95580073     1.27519214     0.00013961    -0.00013961     0.00000000
Ti      1.84421869    -0.98539788     3.82557698    -0.00013961     0.00013961    -0.00000000
O       0.14865816     0.98521080     0.83087357    -0.00040366    -0.00106315    -0.75035977
O       2.14126416     0.98519190     4.26989556     0.00040366     0.00106315     0.75035977
O      -0.14863378    -0.98518982     3.38125841    -0.00106315    -0.00040366    -0.75035977
O       2.43855605     2.95559253     1.71951072     0.00106315     0.00040366     0.75035977
