# total energy = -4984.56888848 eV

CRYSTAL
PRIMVEC
        3.25689837     0.00000000     0.00000000
        2.40144570     4.50270994     0.00000000
       -0.00001545    -0.00006957     5.28075330
PRIMCOORD
6 1
Ti      2.82916405     2.25132008     2.64037676     0.00000000     0.00000000     0.00000000
Ti      0.00000000     0.00000000     0.00000000     0.00000000     0.00000000     0.00000000
O       2.09645244     0.87749825     1.02914110    -0.81618440     0.84906343     0.37561517
O       3.56187569     3.62514201     4.25161248     0.81618440    -0.84906343    -0.37561517
O       0.73270506     1.37379386     3.66951889     0.81537322    -0.84871247     0.37632428
O       1.66872484     3.12884648     1.61123464    -0.81537322     0.84871247    -0.37632428
