# total energy = -4982.08823951 eV

CRYSTAL
PRIMVEC
        2.84403315     0.00000000     0.00000000
        1.71391298     4.11339086     0.00000000
       -0.00001093    -0.00005921     4.55170572
PRIMCOORD
6 1
Ti      2.27896752     2.05666569     2.27585281     0.00000000     0.00000000     0.00000000
Ti      0.00000000     0.00000000     0.00000000     0.00000000     0.00000000     0.00000000
O       1.75603077     0.80162766     0.88706038    -7.05443375     3.09130661     3.96067765
O       2.80190428     3.31170372     3.66464519     7.05443375    -3.09130661    -3.96067765
O       0.52293207     1.25501414     3.16291419     7.05238149    -3.08899365     3.95738380
O       1.19096996     2.85831742     1.38879143    -7.05238149     3.08899365    -3.95738380
