# total energy = -19074.53182939 eV

CRYSTAL
PRIMVEC
        5.17600016     0.00000000     0.00000000
        0.00000000     5.50899976     0.00000000
        0.00000000     0.00000000     9.26300011
PRIMCOORD
22 1
Ti      1.79444799     3.36806302     3.36461701     1.94270159     1.34258995    -1.25130829
Ti      3.73368100     2.33387302     5.88881700    -1.19670267     0.38556792    -0.26505229
Ti      4.29103101     2.41587999     1.23202100    -0.15802083    -0.78246026    -1.11087099
Ti      0.79122101     3.15927603     8.11114898     0.17698427     0.86901596    -0.10113644
Ti      1.74976300     0.62441899     1.21432097     1.67813909    -1.18683966    -0.81677499
Ti      3.24848002     4.92437098     7.90836302    -0.42242675     0.68719160     1.19694075
Ti      0.76293601     0.10177502     6.06173402    -0.20492291     1.35988345    -0.59748500
Ti      4.48114698     5.05329099     3.40404199    -1.04133085     0.20504967     0.52016033
O       3.46866400     3.57651699     4.37542102     0.22858118    -1.41077331     1.50645618
O       0.79606600     1.99654999     0.31410199    -0.27007520     0.14949196    -1.17428213
O       4.21858802     3.70846702     8.98209398     0.97562217    -1.01473458     0.85017646
O       3.35270899     0.82031200     0.23629399     0.30993400     0.44758089    -1.31894119
O       1.64288300     4.62953098     8.92601400    -0.79258887     0.64684789     0.73620224
O       4.24166099     0.71050100     5.00498399     0.71823074    -0.67843159    -1.20904885
O       1.08335601     4.84513499     4.34276502    -0.81071644    -0.01888039     1.43808821
O       0.11651800     3.48870903     2.51851397    -0.58520052    -0.32619495    -0.62342898
O       0.13403102     1.86057202     6.81014697     0.03131579    -0.18073011     0.23744121
O       2.69540200     2.04616697     2.15234999    -1.23527283     0.47187320     1.57380728
O       2.48358002     3.42610000     6.96394499    -0.87544527    -0.54117165    -0.39793390
O       5.06819400     0.81919501     2.22091501     0.80726036    -0.56829063     0.44254770
O       2.42902798     0.69334502     6.72772598     0.22929441     0.35205743    -0.49765083
O       2.60187400     4.75530599     2.27869100     0.49463981    -0.20864253     0.86209352
