# total energy = -19958.83665379 eV

CRYSTAL
PRIMVEC
        7.60600008     0.00000000     0.00000000
        0.00000000     7.60600008     0.00000000
       -1.89786986    -1.89786986     4.85670466
PRIMCOORD
24 1
Ti      3.85382699     6.56922400     1.25904402     1.51712601    -0.09395149    -2.13191248
Ti      3.65669502     2.79435000     1.22447499     3.81674107    -0.65694256    -0.22915094
Ti      0.00800201     6.82603700     1.30655800    -1.50879409    -2.73405632    -1.73342811
Ti      0.09023800     2.88429801     1.23892200    -2.90862504     4.39590695     0.39671725
Ti      5.70040725     2.95495524     3.55877082    -0.75363612     0.69070141    -0.38297984
Ti      5.69543224    -0.80831280     3.69100984    -0.76399510    -0.56422391    -1.11882958
Ti      1.91304122     2.65482321     3.59407282    -0.13096202     1.26514135     1.72428115
Ti      1.88496223    -1.08585579     3.56204479     1.03353912    -0.48369282     1.78372688
O       3.97411601     4.61088500     0.80520002    -1.51861827     0.12857397    -0.68212601
O       3.89695499     0.82162499     0.88114098    -0.56545779     0.62699099    -1.71613049
O      -0.05553398     4.83957302     1.01206102     0.92985266    -0.61351584    -1.38521705
O      -0.15888901     1.13880701     0.90905899     0.59192627    -2.19442836    -1.15023793
O       5.38379420     4.78281522     4.12846580     1.31351899     0.87919034     0.50831397
O       5.54520723     1.07762322     3.83190979     1.26970429    -1.00301291     1.79728277
O       2.10773024     4.50359622     4.03382282    -0.64500235     3.06769796     0.06959567
O       2.03752821     0.82940824     3.84753380    -1.33401326    -1.36739287     1.32927291
O       3.65344423     2.63280822     3.19871481     1.57087905     0.71664976    -1.14202043
O       3.95382122    -0.85347580     3.07854480    -1.45824464    -0.55723231     2.03216778
O      -0.00332080     3.07959125     3.20399484    -0.42904683    -1.01363260    -0.35871710
O      -0.01145780    -0.89613077     3.23359082     0.86411415    -0.11503017     1.15547784
O       5.79312402     6.57917201     1.64199499     0.11567063     0.56797155     0.52729026
O       5.53806202     2.95279000     1.64580798     1.69192303    -0.43861288     1.20939261
O       2.00602401     6.62145798     1.71176500    -1.65558742    -0.19897903    -0.83942847
O       1.88373702     2.86293798     1.48089798    -1.04301209    -0.30411996     0.33665934
