# total energy = -19515.16923358 eV

CRYSTAL
PRIMVEC
        5.93400000     0.00000000     0.00000000
        0.00000000     9.29699974     0.00000000
        0.00000000     0.00000000     4.64899994
PRIMCOORD
23 1
Ti      4.67896699     7.26309301     2.12261398     0.44640667    -2.39798268     0.14190232
Ti      4.32041500     2.25697002     2.55473901     0.65108892     0.15157044    -2.44860412
Ti      1.47313299     6.87077899     2.42012997    -0.82642305     0.49023834    -0.00168099
Ti      1.35729498     2.50524401     2.13817698     0.15891789    -1.21366424    -1.21805620
Ti      2.94872799     4.54763800     4.53645802     2.00995653     0.19065534     2.99431248
Ti      3.15036902     9.09404699     4.44069302    -2.00302483     0.58805882     0.68584357
Ti      0.06571101     4.50661099     0.05073000    -0.59034273     2.21021649    -0.55662939
Ti      5.91854998     0.15101602     0.00218799     2.64824444     1.20679554     1.33922797
O       4.09834101     5.71582499     1.03875499     0.62710078    -0.90720380    -1.33992551
O       4.17097302     0.65756899     1.08586198     1.81990720     0.31861945    -1.08222863
O       1.39320199     5.45813800     1.03205301     0.52431164    -0.26406962    -0.08758646
O       1.28701702     1.08756403     0.88448098     0.65949001     0.35266781     0.89466633
O       4.77220701     8.33929100     3.81845302    -2.89705353    -0.94515741    -1.20993074
O       4.46695397     3.74290101     3.66695799    -1.06842900     1.50543417     0.71647956
O       1.44762702     8.27932998     3.92976202     1.42184166     0.59329770    -0.60732487
O       1.46682399     3.69560997     3.66908899    -0.13451965     0.77158655     0.12109772
O       2.98728299     1.42099702     3.36447398    -1.53413360    -1.18003317     0.50598840
O       5.92081301     6.11463000     3.41097199     0.10126319    -0.10115186    -1.19669881
O       5.90784801     1.51666999     3.26512598     0.00099193    -0.51436583    -0.15753438
O       3.05927301     7.89405402     1.79461500    -1.74019680     0.20566313    -0.39356791
O       2.99726502     3.09000000     1.23194999    -0.91597821     0.55829263     0.93897339
O       0.32979400     7.93807198     1.35447500    -0.99821035    -0.57613455     1.43027539
O       5.59061202     3.33849503     1.37693598     1.63879117    -1.04333348     0.53100088
