# total energy = -4972.70682349 eV

CRYSTAL
PRIMVEC
        4.22149471     0.00000000     0.00000000
       -0.00000685     2.81432948     0.00000000
       -2.11077223    -1.40720769     4.67670671
PRIMCOORD
6 1
Ti     -0.00018143     2.11084935     1.16917643    -0.00970103    -0.01879246    20.72673265
Ti      2.11089711    -0.70372785     3.50752964     0.00970103     0.01879246   -20.72673265
O       0.00004442     0.70357473     0.76179719     0.00940021     0.01214744   -10.55233039
O       2.11067115     0.70354673     3.91490893    -0.00940021    -0.01214744    10.55233039
O      -0.00001809    -0.70357732     3.10015045    -0.00138197    -0.00011313     0.75087399
O       2.11073362     2.11069872     1.57655572     0.00138197     0.00011313    -0.75087399
