# total energy = -4986.59336750 eV

CRYSTAL
PRIMVEC
        3.15594676     0.00000000     0.00000000
        0.00000000     3.65492299     0.00000000
        0.00000000    -0.00005766     4.39888404
PRIMCOORD
6 1
Ti      1.57797343     1.82743252     2.19944202     0.00000000     0.00000000     0.00000000
Ti      0.00000000     0.00000000     0.00000000     0.00000000     0.00000000     0.00000000
O       1.57797343     0.71227936     0.85727769     0.00000000    -0.92308988    -1.15867475
O       1.57797343     2.94258562     3.54160630     0.00000000     0.92308988     1.15867475
O       0.00000000     1.11512985     3.05672069     0.00000000     0.92243579    -1.15796256
O       0.00000000     2.53973518     1.34216335     0.00000000    -0.92243579     1.15796256
