# total energy = -19075.59177273 eV

CRYSTAL
PRIMVEC
        7.60600008     0.00000000     0.00000000
        0.00000000     7.60600008     0.00000000
       -1.89786986    -1.89786986     4.85670466
PRIMCOORD
22 1
Ti      3.90388398     6.69119100     1.30623499    -0.07772936    -0.69895234    -1.17735974
Ti      3.73674499     2.90025001     1.18331002     0.34196893     0.67560800     1.16457235
Ti      0.02935701     6.59307497     1.05154801     0.71548325    -0.10256751     0.03783097
Ti     -0.04974298     2.78681203     1.11438299    -0.61096890     0.51732132     0.44195891
Ti      5.69863921     2.70480723     3.56173480    -1.38804141     1.58226416    -0.37863776
Ti      6.12490821    -0.86560777     3.67801182    -0.77207120    -1.47141023     0.05304034
Ti      1.78010724     2.84744224     3.66718580     1.73643939     0.56136562    -0.18222469
Ti      1.53814623    -0.94036279     3.82628680     0.29352650    -0.05383686    -1.70088513
O       3.82789402     4.83666202     0.90390798    -0.58931249    -0.80179188    -0.46596326
O       3.95172700     0.93211202     0.76192200    -0.12789932     0.67030921     2.02267784
O       0.24104701     4.72153300     0.64137902    -0.66163379    -0.86830094     0.11280257
O       7.29632302     0.93670099     0.62532299     0.99846154     0.32929082     1.20556244
O       5.75357025     4.72091624     4.04857681     0.31771056     1.05149751    -0.98881836
O       5.29496323     0.85403424     3.79365684     1.34371789     0.03651148     0.54500002
O       2.05545520     4.74286525     4.23813583    -0.90068425     0.63876536    -0.79813294
O       1.96656623     0.96441024     4.03634583    -0.69419760     0.05150179     0.26783706
O       3.76576221     2.96586021     3.12622081    -0.17027291    -0.48250985     0.42864548
O      -0.01501175     2.84594520     3.18972483    -0.66370970    -0.51473170    -0.19387462
O       5.89308698     6.41900699     1.79389701    -0.67435047     0.60830498    -0.02250410
O       5.64731098     3.00519898     1.58232602     1.11709409    -0.46100360    -0.01461518
O       2.00639999     6.78098402     1.95837499    -0.22062516    -0.43810097    -0.07358911
O       1.79056600     2.98070998     1.65424301     0.68709466    -0.82953383    -0.28332230
