# total energy = -19958.06728449 eV

CRYSTAL
PRIMVEC
        5.93400000     0.00000000     0.00000000
        0.00000000     9.29699974     0.00000000
        0.00000000     0.00000000     4.64899994
PRIMCOORD
24 1
Ti      4.49069800     6.68318899     2.25667898    -0.18488244     3.02311245     1.28617786
Ti      4.51315798     2.55666099     2.30554299    -1.64260823    -3.88467889     0.70007643
Ti      1.54879402     6.77612400     2.01771602     0.13793691     4.08380602     2.79587081
Ti      1.45397900     2.38042999     2.33408702     1.66256848    -3.67059411     1.19234311
Ti      2.85798203     4.61941100     0.02038999     2.26050754    -2.54498427    -1.48368751
Ti      2.93181802     9.27719597     0.17198001     2.35284720     1.44930851    -1.06276871
Ti      0.00657302     4.68588497     4.62901800    -1.52093330    -2.03852947    -1.66661617
Ti      5.92740100     9.24973199     0.17598700    -2.08008339     0.59341983    -0.69027486
O       4.47371099     5.57793298     0.79189799     0.16560533    -0.39569421    -0.37524930
O       4.37547198     0.83681799     1.02943798     1.14786969     2.30736617     1.06874756
O       1.49604600     5.67352700     0.67287200    -0.87563527    -0.53478837    -0.90922880
O       1.45818898     0.91039501     1.03231099    -0.50585754     1.60751009     1.33166224
O       4.35877998     8.41704100     3.96886599     1.45603657    -0.73599527    -1.67271174
O       4.42252198     3.87815401     3.63708599     0.32002096     1.20861048     1.36875222
O       1.49643801     8.48508198     4.12032499    -1.71082733    -2.26806838    -3.19972673
O       1.55648000     3.81536998     3.62551098    -0.39043296     1.12490999     2.01308376
O       2.91145698     6.04006998     3.11151000    -0.07376523    -0.06983762     0.02323687
O       3.05539001     1.62995801     3.23813698    -0.56061023    -0.04720907    -0.02732981
O       0.10491802     5.85117598     3.01562298    -0.12931188     0.65566137     0.46647799
O       5.86691297     1.69155202     3.30960999     0.38933510    -0.60279253    -0.06053433
O       3.06776599     7.76914702     1.32131802    -0.83081990    -1.40131525     2.22908839
O       2.87518500     3.29373901     1.38606201     0.84804270     1.77302388    -1.58839958
O       5.82456101     7.93726398     1.55440599     0.93649896    -1.62783621     0.83967915
O       0.13183298     3.33792198     1.45708300    -1.17150174     1.99559537    -2.57866882
