# total energy = -19073.81618668 eV

CRYSTAL
PRIMVEC
        5.93400000     0.00000000     0.00000000
        0.00000000     9.29699974     0.00000000
        0.00000000     0.00000000     4.64899994
PRIMCOORD
22 1
Ti      4.38966198     6.88992600     2.37228198     0.12766098     0.49371447    -0.87257592
Ti      4.43571701     2.44992800     2.05130698    -0.73220803    -0.27874934     0.24279322
Ti      1.55884198     7.20023702     2.60417200    -0.19012595    -0.05799202    -0.15530112
Ti      1.59283299     2.20444003     2.25851803     0.15783288     0.96996214     0.08267308
Ti      2.99787199     4.56042499     4.45578701     0.01052507    -0.99141286    -0.20462209
Ti      2.99508899     0.06187902     4.61270399     0.19757470     0.20164218    -0.35098656
Ti      5.85292698     4.60732702     4.37043300     1.22233941    -0.55264417     1.13399935
Ti      5.85531801     9.18613399     0.38553801     0.76660683    -0.28627445     0.22794843
O       4.19748300     5.48985000     0.80826898     1.40410515     0.58769604     1.70185032
O       4.39016602     0.69789298     1.19202700     0.15077392     1.32266646    -0.53000920
O       1.70059401     0.61566497     1.21613801    -2.29100058     1.57950151    -0.19623592
O       4.47546801     8.39445498     3.91915900     0.27755506     0.13931733    -0.63996453
O       4.54113103     3.88231900     3.41309801    -1.47329357    -0.74187101    -0.22353719
O       1.34542803     8.44836502     3.85156502     0.74132028     1.03513577     0.13512232
O       1.53549701     3.86807000     3.37511499    -1.18187383     0.29359027     1.10012017
O       2.98042401     6.17556402     3.37261198    -0.58392397    -0.55164067    -0.37017240
O       3.08282801     1.70629601     3.31557302    -0.34050417    -1.59153222     1.11496933
O       5.91952700     6.17217099     3.45111701     0.49025505    -0.01438096    -0.55193198
O       2.96657301     7.95133899     1.53062101     0.27284043    -1.66267904     0.32685470
O       2.86128499     3.07941598     1.08665802     0.19083866     0.34962594     0.08838762
O       0.06794900     7.79012699     1.55837900    -0.57851180    -0.48804236    -0.61240383
O       5.88718798     3.21663402     1.34176702     1.36121425     0.24436725    -1.44697832
