# total energy = -19072.60278577 eV

CRYSTAL
PRIMVEC
        5.93400000     0.00000000     0.00000000
        0.00000000     9.29699974     0.00000000
        0.00000000     0.00000000     4.64899994
PRIMCOORD
22 1
Ti      4.40461901     6.93554002     2.31534103    -1.50820633     0.08123455     0.65728477
Ti      4.46453902     2.29531701     2.27793999    -1.27173854    -1.15559509    -0.04413686
Ti      1.41205202     7.14063902     2.50580001     1.56044680    -0.08042671    -0.64242327
Ti      1.70869101     2.49470100     2.04938802    -0.82039716     1.55669401     1.45412830
Ti      2.94582698     4.54897603     4.58496802     0.47636131     1.57512549    -0.96315514
Ti      2.82190002     0.00924901     0.02026098     2.94410602     0.86149214     0.30345071
Ti      5.90225101     4.44512901     4.64070800     0.54975220     0.58004520     0.03411007
Ti      0.00273003     9.16405502     0.20604897    -2.37337155     1.56806009    -0.30478640
O       4.27208202     5.72591899     0.82970098     0.93001875    -1.20357086     0.92448445
O       4.40620501     0.77395300     0.97230102     0.30854458     0.90719223     0.38626880
O       1.59738699     0.93105102     1.24114799    -0.79508027    -3.03981228    -3.05472906
O       4.66895898     8.45386100     3.77105499    -1.37378309     0.21492142    -0.80610208
O       4.54890099     3.76051102     3.59791401    -0.67528378    -0.47419927    -0.81316541
O       1.38905001     8.51638202     3.69985900     0.19328429     1.82795604     1.09879708
O       1.54226900     3.80917702     3.47638200    -0.83404638     0.51372383     0.67472225
O       2.84325799     6.34285102     3.42789598     0.80294450    -1.82682912    -0.05373196
O       2.98015598     1.35048199     3.25237503     0.50691709     0.93360904     0.38020716
O       0.16685102     6.36599798     3.46264800    -2.50942101    -3.22799576     0.53407180
O       2.87250598     7.97416298     1.63847199     1.37090423     0.05065692    -2.07019518
O       3.18525101     3.12877499     1.15465598     0.98850726     0.51290442     0.04411449
O       5.80841100     7.91211102     1.37738398     0.99432489    -2.17477793     1.84226860
O       5.91454602     2.82197802     1.11529403     0.53521646     1.99959241     0.41851713
