# total energy = -19075.64829678 eV

CRYSTAL
PRIMVEC
        7.60600008     0.00000000     0.00000000
        0.00000000     7.60600008     0.00000000
       -1.89786986    -1.89786986     4.85670466
PRIMCOORD
22 1
Ti      3.85741698     6.41976001     1.33210101     0.23265510     0.73288294    -1.78522763
Ti      3.76204098     2.75484998     1.24660301     0.22213028    -0.11741975    -0.01653811
Ti      0.10964299     6.82551598     0.91244499    -0.25657742     0.20785886     1.58440177
Ti     -0.00096898     3.00869398     1.15728699    -0.60045128    -0.80360270     0.14080317
Ti      5.61223023     2.95271825     3.60658781     0.11072511    -0.60981525    -0.27239845
Ti      6.12921624    -0.70719978     3.51370281    -0.32440341    -0.46960805     1.13049031
Ti      1.82927024     2.59316924     3.57620182     0.02400871     1.48025714     0.82237074
Ti      1.48435124    -1.15987578     3.82463783     0.15832191     0.26612007     0.48634080
O       3.99771198     4.63266599     0.78206899    -0.33298009    -0.20770048    -0.11366414
O       3.61438899     0.80391698     0.89611098    -0.12065189     0.69126037     0.95607895
O      -0.15226700     4.82198000     0.78738998     0.21330445     1.71762328    -0.70878784
O       0.32906099     1.18799398     0.76425202    -0.23326136    -1.99394138     0.04107622
O       5.53644522     5.06323921     3.95782979     0.01663067    -0.69073406    -1.04672451
O       5.53228520     1.03314725     3.92033383     0.17729280     0.54350338     0.59587215
O       1.85456623     4.63480223     4.25938182    -0.45306377    -0.18607723    -0.10053197
O       2.05097921     0.78327822     4.07508383    -0.77574351    -0.35620976    -0.37648112
O       3.68305122     2.95789821     3.18433881     0.55641341    -0.28560724     0.07303607
O      -0.02605579     2.84515921     3.33364580    -0.29427315     0.07616459    -0.49649666
O       5.79505197     6.88064698     1.67313898     0.33216788    -0.39824243    -0.31853975
O       5.65096098     2.86424801     1.68268401     0.52052877    -0.34256774    -0.15158844
O       2.13304100     6.21504001     2.12269198    -0.24647581     0.97917081    -1.12499715
O       1.80714899     3.07260399     1.57068502     1.07370233    -0.23331484     0.68150560
