# total energy = -19908.58203182 eV

CRYSTAL
PRIMVEC
        6.59166952     0.00000000     0.00000000
        1.04647884     6.93704101     0.00000000
        0.00000000     0.00000000    11.83114306
PRIMCOORD
24 1
Ti      3.00930553     4.11088401     4.38926973    -0.18495495    -1.50898795     0.67003487
Ti      4.62884275     2.82615680     7.44187360     0.18495495     1.50898795    -0.67003487
Ti      6.11122595     2.82615915     1.52625462     0.22988859     0.15761537    -0.46510939
Ti      1.52692235     4.11088193    10.30488884    -0.22988859    -0.15761537     0.46510939
Ti      2.48606625     0.64236363     1.52630207    -0.18495495    -1.50898795    -0.67003487
Ti      5.15208204     6.29467739    10.30484140     0.18495495     1.50898795     0.67003487
Ti      1.00368304     0.64236108     7.44182615    -0.22988859    -0.15761537    -0.46510939
Ti      6.63446525     6.29467993     4.38931718     0.22988859     0.15761537     0.46510939
O       2.45478798     2.44264998     6.03734180     1.67199749     1.76162361    -0.38811254
O       5.18336029     4.49439083     5.79380146    -1.67199749    -1.76162361     0.38811254
O       1.57805548     2.44267802     0.12180824    -1.06222621     0.67816625     0.50904802
O       6.06009287     4.49436285    11.70933476     1.06222621    -0.67816625    -0.50904802
O       4.66012100     1.02587025     0.12176987    -1.67199749    -1.76162361    -0.38811254
O       2.97802727     5.91117056    11.70937313     1.67199749     1.76162361     0.38811254
O       5.53685358     1.02584227     6.03738024     1.06222621    -0.67816625     0.50904802
O       2.10129463     5.91119862     5.79376309    -1.06222621     0.67816625    -0.50904802
O       0.87601834     4.21950157     3.19588696     0.49117216     0.81901570     1.14965095
O       6.76212993     2.71753917     8.63525637    -0.49117216    -0.81901570    -1.14965095
O       3.94527970     2.71747466     2.71972234     0.54593076     1.19761567     0.42357912
O       3.69286856     4.21956609     9.11142079    -0.54593076    -1.19761567    -0.42357912
O       0.35277905     0.75098099     2.71968450     0.49117216     0.81901570    -1.14965095
O       7.28536922     6.18605976     9.11145856    -0.49117216    -0.81901570     1.14965095
O       3.16962927     0.75104551     8.63529407    -0.54593076    -1.19761567     0.42357912
O       4.46851899     6.18599524     3.19584919     0.54593076     1.19761567    -0.42357912
