# total energy = -19938.12999227 eV

CRYSTAL
PRIMVEC
        5.96883460     0.00000000     0.00000000
        0.94759895     6.28157257     0.00000000
        0.00000000     0.00000000    10.71323978
PRIMCOORD
24 1
Ti      2.72496170     3.72245402     3.97453558    -0.00523271    -1.54921493     0.79441435
Ti      4.19147178     2.55911837     6.73870444     0.00523271     1.54921493    -0.79441435
Ti      5.53378727     2.55912049     1.38204159    -0.06356592    -0.02863593    -0.29395433
Ti      1.38264622     3.72245215     9.33119856     0.06356592     0.02863593     0.29395433
Ti      2.25116235     0.58166785     1.38208455    -0.00523271    -1.54921493    -0.79441435
Ti      4.66527114     5.69990472     9.33115560     0.00523271     1.54921493     0.79441435
Ti      0.90884684     0.58166555     6.73866148     0.06356592     0.02863593    -0.29395433
Ti      6.00758664     5.69990702     3.97457855    -0.06356592    -0.02863593     0.29395433
O       2.22283951     2.21184841     5.46688431     1.58693405     1.71167040    -0.40917348
O       4.69359396     4.06972398     5.24635566    -1.58693405    -1.71167040     0.40917348
O       1.42894787     2.21187380     0.11029880    -0.92463023     0.52613223     0.57320041
O       5.48748567     4.06969864    10.60294092     0.92463023    -0.52613223    -0.57320041
O       4.21979461     0.92893763     0.11026405    -1.58693405    -1.71167040    -0.40917348
O       2.69663887     5.35263476    10.60297567     1.58693405     1.71167040     0.40917348
O       5.01368631     0.92891229     5.46691912     0.92463023    -0.52613223     0.57320041
O       1.90274711     5.35266016     5.24632091    -0.92463023     0.52613223    -0.57320041
O       0.79324495     3.82080851     2.89391339     0.39079034     0.75844280     1.02094945
O       6.12318852     2.46076382     7.81932664    -0.39079034    -0.75844280    -1.02094945
O       3.57249737     2.46070540     2.46274070     0.64222221     1.07342903     0.28359047
O       3.34393610     3.82086693     8.25049914    -0.64222221    -1.07342903    -0.28359047
O       0.31944559     0.68002216     2.46270644     0.39079034     0.75844280    -1.02094945
O       6.59698788     5.60155017     8.25053334    -0.39079034    -0.75844280     1.02094945
O       2.87013674     0.68008058     7.81936078    -0.64222221    -1.07342903     0.28359047
O       4.04629673     5.60149175     2.89387919     0.64222221     1.07342903    -0.28359047
