# total energy = -19068.39850398 eV

CRYSTAL
PRIMVEC
        5.93400000     0.00000000     0.00000000
        0.00000000     9.29699974     0.00000000
        0.00000000     0.00000000     4.64899994
PRIMCOORD
22 1
Ti      4.46576100     7.21611001     2.36753499    -3.78795370    -1.93108662    -0.04999332
Ti      4.29633897     2.27928400     2.13513400     4.06210436     1.71934180     1.01199969
Ti      1.36222797     7.07598901     2.69012901     5.17876187    -2.63463918     1.09343350
Ti      1.69826399     2.35175800     2.03980901    -2.85546694     0.76967853     4.23284881
Ti      3.13547300     4.62278397     0.00481202     2.09610908     1.76301972    -1.76716460
Ti      2.89662498     0.30246999     0.37771302    -1.74215624    -2.58673360    -2.03769926
Ti      0.07576601     4.45750800     4.25498203    -0.88190748    -0.24797939    -0.76578228
Ti      5.76757799     8.79332201     0.15160097    -0.44058877    -0.65205669    -0.23968578
O       4.34561702     5.91720201     0.95839800    -1.68901743    -2.42773755     0.67455745
O       4.42185601     0.36495699     1.24611299     3.58347919     1.98715469     1.81002413
O       1.22946597     0.80982302     1.24586502    -1.60103399    -1.52494499    -1.45867401
O       4.04916298     8.42578597     3.88653702     2.68797442     0.99621671    -0.18353133
O       4.33092801     4.09456200     3.14570501     1.13435545    -1.71117623     1.42116674
O       1.30087998     8.53500498     3.51159801    -0.86355854     4.05055830     3.43911889
O       1.73231200     4.01020299     3.36167198    -1.09702482    -0.46971938     0.93941074
O       3.10525602     6.29746000     3.48633000    -1.59518576    -0.83756262    -0.84658282
O       3.34287698     1.53511902     3.30595602    -2.11219931    -0.77460425     1.23107627
O       5.90628101     6.25403799     3.72749798     0.26692894     0.05606370    -1.14373921
O       2.63501399     8.03672999     1.45516600     1.18106933    -0.84263207     0.01069965
O       2.97330002     2.61025902     0.86862202     2.41879036     1.85301428    -2.97049969
O       0.20424501     7.35860501     1.41456800    -1.54046957     1.98567399    -2.69147755
O       0.57864998     3.42113600     1.19284701    -2.40300970     1.46015008    -1.70950604
