# total energy = -19516.90525316 eV

CRYSTAL
PRIMVEC
        5.93400000     0.00000000     0.00000000
        0.00000000     9.29699974     0.00000000
        0.00000000     0.00000000     4.64899994
PRIMCOORD
23 1
Ti      4.39128898     6.97021500     2.19141301    -0.18393859     0.67226531    -1.13266418
Ti      4.53458198     2.23679699     2.41218501     0.85725676     1.17986348    -0.07831635
Ti      1.37785701     6.98620901     2.38263099     0.03606205     1.36678558    -1.01048660
Ti      1.53151601     2.37351401     2.35571402    -0.95487953     0.58859078    -0.84511421
Ti      2.85545700     4.48971198     0.13229802     2.49214268    -0.31683716     0.89244412
Ti      2.89513699     0.28871699     0.00389998     1.76107314    -2.55860803     0.50032683
Ti      0.04586099     4.62638799     0.01877299    -2.51135191    -0.20330466     0.05695536
Ti      5.90367100     9.24492902     4.50830600    -0.46180269    -0.49847975     0.20491880
O       4.32107801     5.57662200     0.93532402     0.10825094    -0.92142407    -0.98673062
O       4.64292002     0.97621100     0.86264200    -1.00582107    -0.90466535    -0.07805255
O       1.43745100     5.51854702     0.90505201     0.49864996     0.37450445     0.00787966
O       1.60006198     1.11375200     0.82064300    -1.05464634    -0.21228681     0.99888860
O       4.62676699     8.47180598     3.46593001    -0.29438217     0.32972662     1.41796186
O       4.42962602     3.49803900     3.87113600    -0.05202912     1.65458854    -0.00293209
O       1.67424099     8.40239301     3.76131601    -0.99718448    -0.30031010    -0.61843281
O       1.39753002     3.62422502     3.86127002     1.00163480     0.69316350    -0.47757513
O       2.96840200     1.47690598     3.24866698     0.17745735    -0.66818754    -0.36908354
O       5.92296200     6.01146298     3.11436602    -0.03467108    -0.79410119     1.42302128
O       0.13034800     1.49503501     3.29152001     0.24766495    -1.05267405    -0.39785779
O       2.90651001     7.78091502     1.27977798     0.30715927     0.04060288     1.45506341
O       3.13068902     3.24290000     1.51514602    -1.11784999     0.35461671    -0.27053363
O       5.86138302     7.75798302     1.33803097     1.19147767     1.07927726    -0.87173336
O       0.04238900     3.27926998     1.49082598    -0.01027259     0.09689360     0.18205294
