# total energy = -19074.84620088 eV

CRYSTAL
PRIMVEC
        5.17600016     0.00000000     0.00000000
        0.00000000     5.50899976     0.00000000
        0.00000000     0.00000000     9.26300011
PRIMCOORD
22 1
Ti      1.87891003     3.38005301     3.28160498     1.26222392     0.91362745     0.44817096
Ti      3.47547298     2.28366998     5.94286600    -1.00462834    -0.34800177    -0.13673132
Ti      4.52288902     2.28118602     1.33046803    -1.18194710    -0.62100598    -2.24835444
Ti      0.72661799     3.17977302     8.04686601     0.01792779     0.37939547     0.44380060
Ti      1.86391801     0.55337298     1.26526497     0.98923308     0.09321872    -1.54939902
Ti      3.15991400     5.02337898     8.02058601     0.54809743     0.23059333     1.09896420
Ti      0.61714402     0.16965698     6.00289502     0.20322933     1.21263323    -1.28608710
Ti      4.51282798     4.92494799     3.39463697    -1.01401107     1.42987559     1.62547645
O       3.39817400     3.39885102     4.43368698     0.90741695    -0.68571218     1.08980465
O       0.81861001     1.92107000     0.19483200     0.77255765    -0.44167763    -0.63287676
O       4.28542702     3.57614699     8.92534798    -0.55830266     0.59321543     0.39284723
O       3.47842198     0.86455402     0.19579902    -0.05834761    -0.56690917    -0.77423838
O       1.64898500     4.69739400     9.01310599    -0.97688175     0.18280447     1.46142792
O       4.24115499     0.57967600     4.95090001    -0.71928103     0.28183775     0.07391924
O       1.13159099     4.93265398     4.29519299    -0.70147562    -0.90412413     1.88184355
O       0.19739200     3.59489802     2.42320402    -0.25933596    -1.26271294    -0.87256692
O       0.04702602     2.25222399     6.46036700     0.15572818    -0.62531720     0.58254946
O       2.68773502     2.19546698     2.05642799     0.10317738    -0.36485510     0.61466949
O       2.37806700     3.48490302     7.06055402     0.42588566    -0.06786944    -1.23420094
O       0.16199502     0.77676701     2.23936498    -0.34342443    -0.05675430     0.55641933
O       2.17028698     0.84179802     6.83906000     1.41874579    -0.23296594    -0.34056897
O       2.79595399     4.81321899     2.46655999     0.01341268     0.86070461    -1.19486896
