# total energy = -19516.69111689 eV

CRYSTAL
PRIMVEC
        5.93400000     0.00000000     0.00000000
        0.00000000     9.29699974     0.00000000
        0.00000000     0.00000000     4.64899994
PRIMCOORD
23 1
Ti      4.43441301     7.04273202     2.46003502     1.34172657     0.17813612    -0.69557288
Ti      4.38960599     2.41695899     2.26655797    -0.09239365    -2.09977342     0.40769329
Ti      1.40564998     7.07207601     2.11862198    -0.55604497    -0.22381050    -0.08729027
Ti      1.41324601     2.27406901     2.43092800     0.45023273     0.18381260     0.27192074
Ti      3.05890999     4.62109997     0.09257099    -1.02208793    -0.08805595     0.60192350
Ti      3.00293003     0.06954903     0.08662102     1.55564654     0.50242228     0.17194182
Ti      0.02568801     4.47409300     4.56300298     0.42472017     1.35701255     0.11027208
Ti      0.13874800     0.02928901     4.52241202    -1.46299552    -0.35986819     1.17479198
O       4.43273499     5.53955599     0.82569701     0.15548572     0.56501221     0.20260815
O       4.58335699     0.87481498     0.94896203    -0.95303990     0.08455513    -0.17536190
O       1.34065601     5.47978299     0.94737899     1.02305261     0.52183206    -0.41608461
O       1.38854697     1.08055401     1.06716398     0.73861702    -2.16784392    -2.19533262
O       4.47317202     8.32818399     3.82534799    -0.05571171    -0.11821063    -0.62971122
O       4.32979700     3.87920400     3.51021198     0.20918195    -0.00147170     1.76901450
O       1.63680000     8.27106000     3.77754201    -0.95211765     0.26911824    -0.36105192
O       1.63198301     3.59188298     3.85337798    -1.67827536     0.63313670    -0.67810069
O       2.96020298     1.33469398     3.40245398    -0.26035283     1.16273736    -1.48289201
O       5.78172703     5.95204500     3.14550699     0.82297366     0.58652798     0.15835070
O       5.89562603     1.33633200     3.23616299     0.24257879     0.80742311     0.09568030
O       2.95606799     7.86488000     1.30727001    -0.48203343    -1.22321641     1.94226656
O       3.04654000     3.22026000     1.35067498    -1.15678396    -0.17633480     0.25947506
O       5.89950601     7.95625399     1.38256701     0.17423421    -0.76707014     0.73803029
O       5.80235197     3.27605798     1.52081001     1.53338721     0.37392904    -1.18257060
