# total energy = -19517.74110875 eV

CRYSTAL
PRIMVEC
        5.93400000     0.00000000     0.00000000
        0.00000000     9.29699974     0.00000000
        0.00000000     0.00000000     4.64899994
PRIMCOORD
23 1
Ti      4.47549701     6.90726899     2.30990399     0.26939335     1.23283594     0.08522619
Ti      4.43570701     2.31932599     2.33780698     0.46034976    -0.17453477     0.40675793
Ti      1.47485600     7.00978999     2.34805699    -0.02739691     0.97875634    -0.11516850
Ti      1.45335198     2.37986001     2.31568298     0.05191368    -0.84308767    -0.08788831
Ti      2.96892801     4.65721701     0.04218400    -0.16389760    -1.02102761     0.73059440
Ti      3.00858000     0.01959099     4.63426998    -0.73215892    -0.90882180    -0.45976175
Ti      0.02380499     4.65335999     0.00526002    -0.22372000    -0.26909433    -0.08301838
Ti      5.93249201     9.27462899     0.07481698     0.60236316     0.11973992    -1.04919380
O       4.35745000     5.60163399     0.84705699     0.55807435     0.03879359    -0.06375233
O       4.40081603     0.88625801     0.79245002     0.27180427     0.16031914     0.95064646
O       1.51057498     5.59340401     0.93154299     0.10883252    -0.54332649    -0.53806781
O       1.46564900     0.94011799     0.97797401     0.24573842    -0.23160866    -0.61576067
O       4.47339401     8.32081499     3.59066100    -0.70932135     0.20311105     1.17634030
O       4.48031999     3.68546099     3.64406499    -0.33695888     1.63720660     0.98637247
O       1.45983800     8.34598298     3.70904102     0.47705963     0.24163494     0.28622225
O       1.43103700     3.72250800     3.84386999     0.40140077    -0.16585498    -1.29868089
O       3.00712698     1.52706801     3.24508000    -1.33845638    -0.87624437     0.16828956
O       0.04409502     6.03481599     3.27055999    -0.41859375     0.16089404    -0.73442303
O       5.84050200     1.28223998     3.26501400     0.88184269     1.51340022    -1.21146466
O       2.95527402     7.85730599     1.35869799     0.31228836    -0.25129406     0.51718762
O       3.02483098     3.25772501     1.33048501    -1.02653054    -0.27079408     0.48695915
O       0.08022899     7.89123101     1.38805399    -0.69766190    -0.52290601     0.04101451
O       5.84961200     3.26585402     1.37931500     1.03363579    -0.20809694     0.42156929
