# total energy = -19958.47488114 eV

CRYSTAL
PRIMVEC
        5.77872746     0.00000000     0.00000000
        0.00002687     5.03207489     0.00000000
        0.00000000     0.00000000     9.49738452
PRIMCOORD
24 1
Ti      2.09452667     2.98200282     3.52346204    -0.03226839     0.42387300    -0.82754920
Ti      3.68422771     2.05007186     5.97392286     0.03226839    -0.42387300     0.82754920
Ti      4.98379028     2.05007348     1.22519246    -0.03044007    -0.42484307     0.83041804
Ti      0.79496410     2.98200135     8.27219254     0.03044007     0.42484307    -0.83041804
Ti      2.09451345     0.46596548     1.22523054    -0.03221773     0.42052310     0.82930218
Ti      3.68424093     4.56610936     8.27215446     0.03221773    -0.42052310    -0.82930218
Ti      0.79495088     0.46596364     5.97388477     0.03052569     0.41970215     0.82851413
Ti      4.98380350     4.56611115     3.52350012    -0.03052569    -0.41970215    -0.82851413
O       1.82901320     1.77187904     4.84644277     0.65614371    -0.10486660     0.41002529
O       3.94974118     3.26019564     4.65094213    -0.65614371     0.10486660    -0.41002529
O       1.06040322     1.77189937     0.09778091    -0.65609795    -0.10531577     0.40980674
O       4.71835122     3.26017536     9.39960372     0.65609795     0.10531577    -0.40980674
O       3.94972796     0.74415814     0.09775008    -0.65603804     0.10506534     0.40988182
O       1.82902642     4.28791654     9.39963455     0.65603804    -0.10506534    -0.40988182
O       4.71833794     0.74413786     4.84647360     0.65596579     0.10528106     0.40996461
O       1.06041633     4.28793687     4.65091130    -0.65596579    -0.10528106    -0.40996461
O       0.20997078     3.06079322     2.56548059     0.13658194    -0.18209511     0.31268791
O       5.56878360     1.97128145     6.93190430    -0.13658194     0.18209511    -0.31268791
O       3.09934029     1.97123468     2.18324207     0.13713961     0.18218638    -0.31274859
O       2.67941409     3.06083999     7.31414267    -0.13713961    -0.18218638     0.31274859
O       0.20995750     0.54475573     2.18321172     0.13644027    -0.18204934    -0.31314120
O       5.56879688     4.48731895     7.31417301    -0.13644027     0.18204934     0.31314120
O       2.67940082     0.54480249     6.93193460    -0.13704113    -0.18207814    -0.31291674
O       3.09935356     4.48727218     2.56545024     0.13704113     0.18207814     0.31291674
