# total energy = -19068.21286471 eV

CRYSTAL
PRIMVEC
        5.17600016     0.00000000     0.00000000
        0.00000000     5.50899976     0.00000000
        0.00000000     0.00000000     9.26300011
PRIMCOORD
22 1
Ti      1.68078400     3.28394198     3.21450700     1.40675005     1.93077192     1.40667549
Ti      3.75883703     1.99870798     5.95467501    -0.87915871     0.77260265     0.49728419
Ti      4.24601200     2.18843702     1.67987397    -1.11508965     1.27963518    -3.15776271
Ti      1.22095400     2.93391499     7.77177999    -0.63749550    -0.62462635     2.47546367
Ti      1.75840499     0.65218403     1.18531402    -0.32203670    -1.43906369    -1.84408020
Ti      3.42539598     5.36729699     8.05219599    -1.69631859     1.27190001    -1.03796373
Ti      0.72125298     5.49232999     6.21779998     0.62956132     1.82863918    -1.14924240
Ti      4.33080498     5.07225401     3.42012501     1.64433138    -0.25523196     2.56273054
O       3.20330601     2.47690101     4.03599202     0.40706415     0.51991222     2.03118228
O       0.66879897     2.21121598     0.21178801    -0.73223991    -0.28654775     0.60198366
O       5.06605501     3.89023698     6.89689400    -2.83171483    -0.09499176     0.60984764
O       3.35815200     1.09290200     0.29428902     0.78834449    -1.22564173    -1.28938377
O       1.88535302     4.56612401     9.18424202     0.42930342     0.87189946    -0.82333567
O       4.05404501     0.22674600     5.70894198    -1.13913565    -0.26810780    -2.72794867
O       1.09305498     5.31739198     4.29050702    -1.16708638    -1.11176110     1.04036231
O       5.06543101     3.63262201     2.45119898     1.12475212     0.89923672     0.44693143
O       4.84127697     1.50084400     7.52499501     0.02701356    -1.08524094    -1.96906260
O       2.31589402     2.38359500     1.78230099     0.51254241     0.82442273     1.15650140
O       2.07884700     4.44198401     6.61436102     3.38221881    -2.98680588     1.33184659
O       5.14009400     0.85215498     2.26516798     1.82321852    -2.03048808     1.21545810
O       2.15633199     1.26685600     7.27640801     0.68974110     1.14842016    -1.43807252
O       2.89105201     5.01540502     2.38578298    -2.34456516     0.06106681     0.06058473
