# total energy = -19068.84570967 eV

CRYSTAL
PRIMVEC
        5.17600016     0.00000000     0.00000000
        0.00000000     5.50899976     0.00000000
        0.00000000     0.00000000     9.26300011
PRIMCOORD
22 1
Ti      1.74435099     3.34708601     3.33668402    -1.90187014     1.16980506    -3.01920642
Ti      3.83718801     2.53921602     6.27695502    -1.49770723     1.88473424    -1.20538580
Ti      4.12852200     2.30292298     1.45019999     2.94134234    -0.38818221    -1.29626173
Ti      1.40706299     2.04264398     8.09132399     1.01203492     0.47280394     2.86201349
Ti      1.80818797     0.56187601     1.31474897    -1.72109812     1.62923617    -1.41337373
Ti      3.15456899     5.35967398     7.59956698     4.76963519    -4.58492913     6.66587538
Ti      0.56840500     0.13239898     6.00436899     1.27388284     2.43768515    -1.15725602
Ti      4.28690999     5.09320699     3.32922299     1.50832563     0.97071727    -1.21510483
O       2.76586603     3.15021699     4.65502701     2.55899730     0.43863036     3.65495383
O       0.89459801     2.24930801     0.79315198     0.72292814    -0.19556358    -3.35488721
O       5.17342502     4.27972699     6.81380100    -2.87993537    -2.85032114     1.51980715
O       3.23790499     1.55688403     0.04941801    -0.54977482    -0.16556805     0.24677020
O       1.64978199     0.00958298     8.85103498    -1.28083305     0.29152155    -0.67535038
O       4.62860302     1.04104501     4.89888199    -1.65720953     1.01750494    -0.97944977
O       0.66495403     4.63835502     4.34263500     0.79719654    -0.60822065     0.01577501
O       0.05327100     3.61123197     2.26238599    -1.65099080     1.14952959     2.03715341
O       4.70258999     1.61444301     7.49539997     2.84819792    -2.08169830     0.59802339
O       2.74880900     1.87998701     2.54486600    -0.95694207    -1.91048539     1.21783766
O       2.61940199     3.60205202     7.96367300     0.25864330    -1.58043353    -2.50512136
O       4.98075402     0.57568600     1.75743400    -0.15831651    -1.12948938     2.67521506
O       2.41015303     0.87386500     6.58980201    -4.20822869     4.32748653    -5.55962673
O       2.73164397     4.58589402     2.18420000    -0.22827754    -0.29476346     0.88759939
