# total energy = -4973.57395572 eV

CRYSTAL
PRIMVEC
        4.24431360     0.00000000     0.00000000
       -0.00000689     2.82954207     0.00000000
       -2.12218181    -1.41481421     4.70198621
PRIMCOORD
6 1
Ti     -0.00018241     2.12225934     1.17549631    -0.00978665    -0.01477665    20.12305797
Ti      2.12230736    -0.70753178     3.52648926     0.00978665     0.01477665   -20.12305797
O       0.00004466     0.70737783     0.76591502     0.00884537     0.01514406   -10.20369407
O       2.12208019     0.70734968     3.93607060    -0.00884537    -0.01514406    10.20369407
O      -0.00001819    -0.70738044     3.11690802    -0.00126421    -0.00021160     0.56348729
O       2.12214299     2.12210791     1.58507764     0.00126421     0.00021160    -0.56348729
