# total energy = -19960.64219115 eV

CRYSTAL
PRIMVEC
        5.93400000     0.00000000     0.00000000
        0.00000000     9.29699974     0.00000000
        0.00000000     0.00000000     4.64899994
PRIMCOORD
24 1
Ti      4.43495600     7.01818502     2.34582899     0.05397442    -0.69066310    -0.37645258
Ti      4.41595902     2.24858198     2.41486498     0.16354690     0.14551035    -0.40690268
Ti      1.51185401     6.90748299     2.32551901     0.05005734     0.59474960     0.60133729
Ti      1.45022999     2.36657200     2.18795801    -0.52017961    -0.45781723    -0.61672123
Ti      2.94186800     4.62666501     0.01607598     1.68103698     0.89222095     0.23453509
Ti      2.99871502     0.01059402     4.59299500    -1.24222355    -0.57799320     0.04636343
Ti      0.05183402     4.64926199     4.55969001    -1.32257878     0.43088980     0.50871943
Ti      5.91438298     0.00676998     0.06200698     0.81243265    -0.49625755    -0.16040630
O       4.35980098     5.63152102     1.01221199     0.50815096    -0.80351760    -0.70461905
O       4.48663302     1.07063401     0.84725702    -0.29453669    -1.22809894    -0.22960165
O       1.55818501     5.40199599     1.03893401    -0.94851013     0.88090578    -0.18655854
O       1.45665801     0.87271901     0.84861499     0.50700373     1.21697685     0.76954689
O       4.45906399     8.41658099     3.77896402     0.03637572     0.06966329     0.53849230
O       4.41839900     3.84000303     3.58947300     0.58432558    -0.21798566     0.88124156
O       1.53476500     8.30487601     3.85282002    -0.06269637     0.70196542     0.10929918
O       1.47731201     3.80647298     3.73740799    -0.11965481    -0.75730355    -1.02139862
O       2.97219202     6.10575998     3.33678102    -0.07081026    -0.32459932    -0.08708587
O       2.92425200     1.27067200     3.15706698     0.16564544     1.22469454    -0.18219718
O       0.02960397     6.18865200     3.34084902    -0.14435104    -0.78877952     0.21245625
O       5.90523398     1.39847498     3.16558398     0.56340219     0.36464581    -0.01958281
O       2.95171302     7.96538700     1.69822701     0.22989785     0.46946484    -1.78042969
O       2.97973698     3.17077002     1.38842299    -0.48261604    -0.09075612     0.06105370
O       0.05249602     7.90541201     1.39665302    -0.45468974    -0.39692397     0.67192669
O       0.00733900     3.19838799     1.24872998     0.30699806    -0.16099123     1.13698441
