# total energy = -19074.79214096 eV

CRYSTAL
PRIMVEC
        5.93400000     0.00000000     0.00000000
        0.00000000     9.29699974     0.00000000
        0.00000000     0.00000000     4.64899994
PRIMCOORD
22 1
Ti      4.41161600     6.96933201     2.31470400    -0.33254763    -0.79624318    -0.49108963
Ti      4.43878899     2.31821599     2.32909900    -0.74289071    -0.70693870    -0.84895981
Ti      1.50920701     7.11628803     2.48911199     0.41862049     0.04738108     0.66151681
Ti      1.57543100     2.47652402     2.05026900    -0.60843508    -0.52164797     0.55479362
Ti      2.95637100     4.64794201     4.54761001     0.45895545     0.54883817     0.33501821
Ti      3.01093097     0.05450298     4.60864002     0.24358640     0.36801756     0.19298039
Ti      5.80952799     4.51921298     4.46567501     0.01215052     0.47840303     0.42278645
Ti      5.92371999     9.09156901     0.15091902    -0.19945469     0.12038089     1.05933192
O       4.63011297     5.53905401     0.96896101    -0.50039831     0.29292795    -0.09766879
O       4.50567001     0.87604902     1.03201603    -0.01465786     0.00332135    -0.75762082
O       1.31725399     0.91635402     0.89711499     0.77374062     0.93885821    -0.26954658
O       4.48993799     8.21226100     3.89512901    -0.22569486     1.30034696     0.21183353
O       4.32243101     3.75864398     3.59982402     0.57250210    -0.31327927     0.37536963
O       1.49973802     8.21698099     4.00512501     0.04471921     0.51824691    -0.40580482
O       1.58329902     3.76186101     3.67439103    -0.62216709     0.18048714    -0.04239802
O       3.05765198     6.16357599     3.42029800    -0.84276191    -0.41719944    -0.57831562
O       2.79906899     1.31960899     3.14641099     0.40518904     0.27717582     0.55888064
O       0.07713499     6.06963300     3.32023402     0.12968443    -0.78610943    -0.29124593
O       2.92286598     8.16266402     1.57049600     0.01752387    -1.92958047     0.62910161
O       3.04829798     3.19140598     1.29515402     0.50035074     0.61461781    -0.25786863
O       0.01579901     7.94950200     1.69780499     0.17688245     0.40105753    -1.18488022
O       5.87593301     3.25096900     1.37202098     0.33510254    -0.61906171     0.22378633
