# total energy = -19941.54056552 eV

CRYSTAL
PRIMVEC
        5.62346150     0.00000000     0.00000000
        2.56352659     5.40826360     0.00000000
        0.00000000     0.00000000    10.34287467
PRIMCOORD
24 1
Ti      3.55737775     3.20493197     3.83713271     1.56447417    -3.48046996     0.96963947
Ti      4.62961015     2.20333156     6.50574202    -1.56447417     3.48046996    -0.96963947
Ti      5.89425615     2.20333339     1.33426334    -3.58665167    -0.38651974     0.97551701
Ti      2.29273185     3.20493035     9.00861155     3.58665167     0.38651974    -0.97551701
Ti      2.27561459     0.50080026     1.33430479     1.56447417    -3.48046996    -0.96963947
Ti      5.91137335     4.90746344     9.00857010    -1.56447417     3.48046996     0.96963947
Ti      1.01096855     0.50079826     6.50570056     3.58665167     0.38651974     0.97551701
Ti      7.17601944     4.90746542     3.83717422    -3.58665167    -0.38651974    -0.97551701
O       2.68252230     1.90434153     5.27788978     1.23782619     1.87826303    -1.14010007
O       5.50446560     3.50392200     5.06498500    -1.23782619    -1.87826303     1.14010007
O       1.93457417     1.90436338     0.10648571     0.72574324    -0.99346100     0.96251339
O       6.25241381     3.50390025    10.23638879    -0.72574324     0.99346100    -0.96251339
O       4.22270241     0.79979017     0.10645211    -1.23782619    -1.87826303    -1.14010007
O       3.96428550     4.60847341    10.23642234     1.23782619     1.87826303     1.14010007
O       4.97065061     0.79976837     5.27792332    -0.72574324     0.99346100     0.96251339
O       3.21633725     4.60849523     5.06495140     0.72574324    -0.99346100    -0.96251339
O       1.76359551     3.28961253     2.79386849     0.58268958     1.58110150     1.50886556
O       6.42339234     2.11865101     7.54900629    -0.58268958    -1.58110150    -1.50886556
O       4.02027568     2.11860068     2.37760177     1.41537945     0.90580564     0.14946805
O       4.16671222     3.28966285     7.96527278    -1.41537945    -0.90580564    -0.14946805
O       0.48183231     0.58548065     2.37756873     0.58268958     1.58110150    -1.50886556
O       7.70515553     4.82278289     7.96530582    -0.58268958    -1.58110150     1.50886556
O       2.88494902     0.58553097     7.54903922    -1.41537945    -0.90580564     0.14946805
O       5.30203888     4.82273256     2.79383545     1.41537945     0.90580564    -0.14946805
