# total energy = -19077.75524688 eV

CRYSTAL
PRIMVEC
        7.60629642    -0.00000847    -0.00005503
       -0.00000847     7.60629642    -0.00005503
       -1.90157093    -1.90157093     4.85369047
PRIMCOORD
22 1
Ti      3.80305862     6.66367512     1.15022440     0.00012701    -0.00128452     0.03316544
Ti      3.80297880     2.84797775     1.21305219    -0.00006736     0.01045385     0.00216410
Ti     -0.00008422     6.66368603     1.15021008    -0.00000797    -0.00131563     0.03344904
Ti     -0.00016227     2.84799684     1.21307968    -0.00002931     0.01039215     0.00197358
Ti      5.70490035     2.84775856     3.62844132     0.00021829     0.02412210    -0.02778129
Ti      5.70480635    -0.94040264     3.64639172    -0.00005528    -0.03156673     0.00064972
Ti      1.90176708     2.84776551     3.62849896    -0.00012547     0.02424783    -0.02798158
Ti      1.90163737    -0.94039782     3.64644245     0.00000129    -0.03167446     0.00062735
O       3.80319433     4.75755315     0.78079386    -0.00003214     0.00218852    -0.01818311
O       3.80320093     0.94095202     0.83435902    -0.00011287     0.00161234     0.00095876
O       0.00004540     4.75756958     0.78079933     0.00007148     0.00200186    -0.01817154
O       0.00005348     0.94093203     0.83436319     0.00007508     0.00196021     0.00099270
O       5.70464655     4.76797833     4.00387436     0.00005168     0.03704473     0.02276456
O       5.70464722     0.93372809     4.04487762    -0.00005554    -0.03248899     0.02013277
O       1.90153871     4.76799019     4.00394814    -0.00010824     0.03694574     0.02255321
O       1.90152803     0.93372974     4.04491123    -0.00016147    -0.03243422     0.02016543
O       3.80315028     2.85377511     3.22437595     0.00000077    -0.00159511    -0.03057866
O       0.00000809     2.85377507     3.22440705     0.00004422    -0.00153855    -0.03049047
O       5.70470502     6.65637605     1.75228347     0.00011904    -0.01034869     0.02341684
O       5.70473101     2.84964577     1.62518174    -0.00021443     0.00177586    -0.02660064
O       1.90154137     6.65636492     1.75233720     0.00007816    -0.01024868     0.02338291
O       1.90155990     2.84965854     1.62521510     0.00018281     0.00175092    -0.02660913
