# total energy = -19516.19559791 eV

CRYSTAL
PRIMVEC
        5.17600016     0.00000000     0.00000000
        0.00000000     5.50899976     0.00000000
        0.00000000     0.00000000     9.26300011
PRIMCOORD
23 1
Ti      1.82244602     3.19444202     3.37098100    -0.04906695     0.56749307     1.88564801
Ti      3.26271700     2.28465002     5.90491002     0.97902425     0.26674897    -2.82441675
Ti      4.40824599     1.98603101     1.36043697     0.51004329     1.98132060     0.44702707
Ti      0.92934902     3.23517999     7.68702702    -2.59112350    -0.28558616     2.37175227
Ti      2.07952102     0.23898301     1.29955698    -0.61550021    -0.30977562     0.06239555
Ti      3.30361002     5.24374802     7.95557500     0.03395991     0.23945413    -0.37626258
Ti      0.70289402     0.54966398     5.92068998    -0.91132760    -0.22518604    -2.49757671
Ti      4.47094402     5.02820302     3.31387299     0.56345490    -0.91046756     3.53577929
O       1.58732902     1.94268499     4.82760102    -0.17236682     0.41033253     0.31353278
O       3.58763400     3.56185402     4.47287298    -0.92232421    -1.05089613     0.74033323
O       0.26108902     2.86901400     0.15966399    -0.37195880    -1.34817593    -0.97340125
O       3.48927398     0.94400099     0.10818902    -0.47130421    -0.37256764     0.10026226
O       1.81307101     4.57850703     9.12420300     1.66398362     0.80651114    -0.65834844
O       4.15925598     0.62083398     5.12609298    -0.52830842     0.75752466    -1.60027448
O       0.89255798     4.81205401     4.40469998     1.04420663     0.15443183     0.80998187
O       0.12167103     3.53353902     2.51415498     0.74860525    -1.94361459    -0.06843379
O       4.65630503     1.90989198     7.08300003     2.60073609     1.20000577     0.00986198
O       2.61862902     1.87029301     2.29921202     0.38760397     0.06352247    -0.60816897
O       2.47994097     3.74542900     6.93173100     1.62838977     0.37642790    -0.59670210
O       0.18545699     0.52110798     1.95102202     1.31700643     0.84599147    -0.37158085
O       0.07897399     4.83720998     7.21338898    -1.79258793    -1.21761732     1.03810308
O       2.29955001     1.06924402     7.11047703    -1.75019582    -0.36083904     0.00880140
O       2.94565601     4.50209701     2.33367898    -1.30094963     0.35496149    -0.74831317
