# total energy = -4982.88174233 eV

CRYSTAL
PRIMVEC
        3.86279000     0.00000000     0.00000000
        0.00000000     2.59389118     0.00000000
        0.00000000    -0.00008313     5.14660986
PRIMCOORD
6 1
Ti      1.93139500     1.29690397     2.57330483     0.00000000     0.00000000     0.00000000
Ti      0.00000000     0.00000000     0.00000000     0.00000000     0.00000000     0.00000000
O       1.93139500     0.50549498     1.00299844    -0.00000000    -2.01598063    -1.20822507
O       1.93139500     2.08831302     4.14361122    -0.00000000     2.01598063     1.20822507
O       0.00000000     0.79137603     3.57630426     0.00000000     2.01565924    -1.20978830
O       0.00000000     1.80243192     1.57030536     0.00000000    -2.01565924     1.20978830
