# total energy = -19519.44787513 eV

CRYSTAL
PRIMVEC
        7.60600008     0.00000000     0.00000000
        0.00000000     7.60600008     0.00000000
       -1.89786986    -1.89786986     4.85670466
PRIMCOORD
23 1
Ti      3.80759298     6.64430600     1.19842899    -0.07650783     0.35986125     0.48910602
Ti      3.80734300     2.84665298     1.20731297    -0.00977045    -0.27614481     0.95696418
Ti     -0.00754501     6.63153499     1.19743001    -0.24881320     0.37902188    -0.36753188
Ti     -0.00528701     2.82622800     1.12286301    -0.16264393    -0.38764640     0.49940972
Ti      5.69792022     2.90975922     3.67498582    -1.03839285    -0.45080403    -0.01928225
Ti      5.75599425    -0.95325577     3.60136880    -1.45839530     0.30983784     0.17844080
Ti      2.00343321     2.87097624     3.69409880     0.39172520    -0.20357848     0.23011073
Ti      1.85455422    -0.91517877     3.61675479     1.12901064    -0.07598307     0.18031899
O       3.78165499     4.74423502     0.79028997    -0.37026599    -0.42726274     0.96488138
O       3.75317700     0.97121001     0.74692400     0.16651602    -0.22238405     0.33337939
O      -0.12395099     4.75900103     0.70954800     0.65592028     0.19964443     1.17643157
O      -0.15296398     0.91358198     0.81166598     0.38097258    -0.06044203    -0.45201939
O       5.75306022     4.78237224     3.94076779     0.28944282    -0.37753090     0.61717426
O       5.83928421     0.94538225     4.11518080     0.42374624     0.06665279    -1.11275381
O       1.94823024     4.73672822     4.06817881    -0.47365497     0.49926497    -0.28475698
O       1.74679521     0.96851920     4.09650180    -0.14304543    -0.05930560     0.05030160
O       3.80264322     2.72842224     3.30299184     0.59655709     0.24112766    -0.77250803
O       3.78146724    -0.80841879     3.25324880    -0.07300187    -0.22750492    -0.64213685
O      -0.01372278    -0.94658576     3.19766381     0.05854173    -0.09235355    -0.21116632
O       5.67151798     6.55546201     1.56256400     0.01239992     0.32920571     0.70665974
O       5.78758602     2.88579003     1.76997900    -0.22823306    -0.20605574    -1.27294542
O       1.84306102     6.58574201     1.58635100     0.50291465     0.11843148     0.21353868
O       1.79660598     2.69941502     1.84225900    -0.32502227     0.56394778    -1.46161638
