# total energy = -4987.02108153 eV

CRYSTAL
PRIMVEC
        2.80271323     0.00000000     0.00000000
        0.86959031     4.30447246     0.00000000
       -0.00000579    -0.00005750     4.41377529
PRIMCOORD
6 1
Ti      1.83614883     2.15220749     2.20688775     0.00000000     0.00000000     0.00000000
Ti      0.00000000     0.00000000     0.00000000     0.00000000     0.00000000     0.00000000
O       1.57082578     0.83886712     0.86017985    -3.12266663     1.52430350     1.66388437
O       2.10147187     3.46554785     3.55359564     3.12266663    -1.52430350    -1.66388437
O       0.26532067     1.31331708     3.06706839     3.12248588    -1.52489743     1.66452458
O       0.60426384     2.99109779     1.34670710    -3.12248588     1.52489743    -1.66452458
