# total energy = -19517.09328418 eV

CRYSTAL
PRIMVEC
        5.17600016     0.00000000     0.00000000
        0.00000000     5.50899976     0.00000000
        0.00000000     0.00000000     9.26300011
PRIMCOORD
23 1
Ti      1.83170398     3.15699099     3.38821398    -0.20094027     1.21869152     1.89340375
Ti      3.34752898     2.24838201     5.90989402     0.56937615     0.10228752    -2.33475640
Ti      4.33206198     2.04276299     1.50360800     0.57165595     0.06719786    -0.90574084
Ti      0.87770302     3.35858101     7.86875199    -1.22682444     1.81273330     0.24528333
Ti      1.96495700     0.28161601     1.34299698    -0.08826318    -0.42354827    -0.72931374
Ti      3.37335098     5.06847700     7.95147800    -0.24912431     0.47792300     0.76282654
Ti      0.75043102     0.74787700     5.82547199    -1.05549840    -1.77814012    -1.95347220
Ti      4.51247798     4.83780801     3.40096900     0.64093512     1.33234872     2.88460115
O       1.73928597     1.85122300     4.69142398    -0.18343877    -0.20868058     0.39226744
O       3.44501401     3.45122502     4.42033499     0.78374427     0.79022551     0.40709834
O       4.90715901     2.92399901     9.21626899    -0.57093964    -0.42648344     0.83425335
O       3.63874199     0.61584198     0.37066702    -0.14040902    -0.35715927    -1.30939468
O       1.74502199     4.57125000     9.15145700     0.16675847     0.65262979    -0.07098870
O       4.37040903     0.88029900     4.73354601    -1.01110212     0.04097954     0.20506946
O       0.94959498     4.75617802     4.37483401     0.15747987    -0.77175392     0.82446439
O       0.07708001     3.34246200     2.60341401     0.25048905    -0.44919092    -1.36138729
O       5.10916999     2.27424099     6.66662601    -0.46354976    -0.86608748    -0.01102412
O       2.48848301     2.02354502     2.02137502     0.94327768     0.70354793    -0.52498758
O       2.53101198     3.66806900     6.98861698     0.27068636    -1.57487892    -0.14185681
O       0.34070199     0.77747103     2.28897101    -0.99839624    -0.72368148    -1.18857952
O       4.89728001     4.77148299     6.94151099     1.70743502     0.44964574     1.29812450
O       2.51215898     0.73738601     6.81396700    -0.25707699     0.20116704     1.00316589
O       2.74590101     4.72815798     2.50804198     0.38372546    -0.26977259    -0.21905627
