# total energy = -19073.93274751 eV

CRYSTAL
PRIMVEC
        5.17600016     0.00000000     0.00000000
        0.00000000     5.50899976     0.00000000
        0.00000000     0.00000000     9.26300011
PRIMCOORD
22 1
Ti      1.93023900     3.36001899     3.31556101    -0.96042926     1.23590738     0.58560367
Ti      3.72965899     2.27904100     5.92927202    -1.20994797    -1.35927204    -1.79045263
Ti      4.21682099     2.25130201     1.30365700     2.20573171    -0.32436690    -1.26459396
Ti      0.76582198     3.14489500     8.12695900     0.17824642     1.70012357     0.67720234
Ti      1.73270301     0.47100802     1.23548002    -0.52553857    -0.35460565    -1.11976778
Ti      3.28363998     5.02467499     7.97588498    -0.54634086     0.17424244     0.88238391
Ti      1.00150901     0.08435498     6.09558301    -0.75147125    -0.22795049    -0.36425860
Ti      4.43073698     4.95461801     3.42843002    -0.50992579     1.27444437     0.77886483
O       3.46941999     3.59846700     4.57370099    -0.54414359    -0.57503669     0.20765831
O       0.74161699     1.93209202     0.35873000     1.02099136     0.46148516    -1.36799503
O       4.23049599     3.54740701     8.82319502    -0.97738440    -0.13152457     0.45294756
O       3.28096700     0.77907300     0.14560201     1.09422026     1.47226178     0.26139593
O       1.57075202     4.81454998     8.94650702    -1.01561646    -0.77199715     1.44374207
O       3.98924699     0.93560602     4.57226702     0.08093476     0.55702842     1.57447268
O       0.95537999     5.03251301     4.28837300     0.88559522    -0.95750925     1.27254304
O       0.07984502     3.48033898     2.47077901     0.73136239    -1.10464506     0.00533427
O       0.25028100     2.23187099     6.58645999    -0.23427284    -1.76253558    -0.77569080
O       2.73801500     1.99560398     2.37904301    -1.34123420    -1.19831475     0.08456670
O       2.05178498     4.06064703     6.79672201     0.17361226    -1.29369526    -0.49086260
O       5.07454302     0.64673202     2.09258402     0.52524058     0.04246770     0.02092750
O       2.43606800     0.95885002     6.81889898     1.87828746     1.94389304    -0.12899795
O       2.75080501     4.59241301     2.32563802    -0.15791696     1.19959953    -0.94502320
