# total energy = -19070.75639894 eV

CRYSTAL
PRIMVEC
        7.60600008     0.00000000     0.00000000
        0.00000000     7.60600008     0.00000000
       -1.89786986    -1.89786986     4.85670466
PRIMCOORD
22 1
Ti      4.42667898     6.51217399     1.14373402    -2.17745419     0.55147278     2.48075912
Ti      3.39383601     2.57268701     1.25330700     0.16101102     0.39778812    -0.55998005
Ti      0.24445899     6.71701702     0.88613800    -2.94347764     0.85969854     2.74600553
Ti      7.12217899     3.01738498     0.97653200     0.47055576    -2.05885764     1.95502437
Ti      5.47477025     2.72675120     3.63349679     0.14017043     2.08457305    -1.79610649
Ti     -1.17103380    -0.60601077     3.83459081     0.61812377     0.48120296     0.85535260
Ti      1.70720122     2.79737821     3.96384781    -0.02681430    -1.23176584     0.09384864
Ti      1.90569624    -0.88939778     3.71007382     0.71188628     0.06969492     2.59837016
O       3.56658402     4.50548199     1.02601399     0.13518120     3.32283531    -0.49475062
O       3.61528097     0.74159799     0.82739001     0.63512982    -0.91800938     0.98234381
O       7.23962802     4.88113799     0.93341099     0.19669666    -0.24702551    -1.11868406
O       7.32842000     1.08871800     0.42488102    -1.17160278    -2.88283995     2.05361208
O      -1.48231777     4.70092223     4.06375679     0.52576997     1.11320401    -2.79887411
O       5.14234020     0.96971324     3.86051383     0.65908274     0.22628364     0.65577219
O       2.27022422     4.61319221     4.29234580    -0.21975921     0.88341158    -2.92758102
O       2.44009620     0.92930923     4.43095479    -1.48849882    -1.26237638    -2.65920428
O       3.58493922     2.98706921     3.12183081    -1.04605962    -0.75683509     0.53868591
O       0.01143425     3.02018221     3.10027382     1.25448284    -1.45191226    -0.03460758
O       5.96847802    -0.63779898     2.02278798     0.95823276    -0.59401015    -1.07882449
O       5.47486402     2.58864599     1.75187499     1.04232587     0.48465930    -0.32472891
O       1.68200201    -0.71185199     1.98358002     0.75388218    -0.21234312    -1.49329033
O       1.61123699     2.42855199     0.47544502     0.81113475     1.14115088     0.32685752
