# total energy = -4987.96626434 eV

CRYSTAL
PRIMVEC
        3.23382581     0.00000000     0.00000000
        0.00000000     5.06692023     0.00000000
        0.00000000    -0.00006576     5.06692023
PRIMCOORD
6 1
Ti      1.61691285     2.53342718     2.53346006     0.00000000     0.00000000     0.00000000
Ti      0.00000000     0.00000000     0.00000000     0.00000000     0.00000000     0.00000000
O       1.61691285     0.98745530     0.98746811     0.00000000    -0.67251368    -0.67251368
O       1.61691285     4.07939907     4.07945201     0.00000000     0.67251368     0.67251368
O       0.00000000     1.54594523     3.52092920     0.00000000     0.67304949    -0.67304949
O       0.00000000     3.52090914     1.54599092    -0.00000000    -0.67304949     0.67304949
