# total energy = -19518.25181087 eV

CRYSTAL
PRIMVEC
        5.93400000     0.00000000     0.00000000
        0.00000000     9.29699974     0.00000000
        0.00000000     0.00000000     4.64899994
PRIMCOORD
23 1
Ti      4.52675100     7.07036899     2.25723900     0.68162567    -0.64588835     0.33440166
Ti      4.43410800     2.23130598     2.31897198    -0.71984616     0.12804818    -0.04368692
Ti      1.45155098     7.10781098     2.21126599    -0.46682149    -0.46167723     0.36309647
Ti      1.42455098     2.31813101     2.37258398     0.98518822    -0.28597851    -0.50831114
Ti      2.99700001     4.59005500     0.15629001    -0.24348767    -1.17259934     0.68740165
Ti      2.93176098     9.21447598     4.58041402     0.34924130     1.34676413     0.41847316
Ti      0.00675500     4.62008501     0.02945501     0.04645111     0.20414130    -0.78310046
Ti      5.89422598     0.09091001     4.62370802     0.29053271     0.14726744     0.71576916
O       4.40619702     5.58659397     0.95434699     0.10935600     0.04428727    -0.16289384
O       4.38659100     0.92742700     0.86178701     0.90283987    -0.11135221     0.37659116
O       1.52125002     5.62304000     0.97583201     0.13702468    -0.32854005    -0.53318297
O       1.57949900     0.96546902     0.99911501    -0.66378761    -1.18895902    -1.12830127
O       4.54033599     8.35551700     3.67850300    -0.42729951     0.12837266     0.63773152
O       4.43971701     3.75998502     3.75167202    -0.12030273     0.32462246    -0.05474729
O       1.55567200     8.39026098     3.70907399    -1.21737717    -0.70828159    -0.25118145
O       1.46134801     3.68891900     3.87259098     0.21683741     0.46471344    -0.74244179
O       2.92080399     1.34495198     3.29173401     0.59382349     0.85731590    -0.74179053
O       0.04401098     6.02750499     3.20581801    -0.06958051     0.39103074    -0.11114009
O       0.02534098     1.31319298     3.21026998    -0.42994389     0.55482241     0.02343484
O       3.00339501     7.87213401     1.33734902     0.00576313    -0.88154495     1.10873003
O       2.97304903     3.21906401     1.41494202     0.13269263     0.17169602     0.58366969
O       5.92803797     7.96692299     1.45865301     0.12469366     0.27919260    -0.72103478
O       5.91417798     3.10531598     1.35198601    -0.21762339     0.74254670     0.53251371
