# total energy = -19071.48371833 eV

CRYSTAL
PRIMVEC
        5.17600016     0.00000000     0.00000000
        0.00000000     5.50899976     0.00000000
        0.00000000     0.00000000     9.26300011
PRIMCOORD
22 1
Ti      1.55482002     3.08568298     3.68498097    -1.57567056    -1.68112902    -1.01537709
Ti      4.34984800     3.26661699     5.81676200    -0.64653807    -0.26137073     0.74573486
Ti      4.14988700     2.27025502     1.38945398     1.31133329    -1.97993092     1.26187990
Ti      1.48864397     2.98359500     7.98052301    -1.72261842    -0.99145143     1.21429956
Ti      1.61857498     0.42054700     1.35670400    -0.50741871     0.97667452     0.72820225
Ti      3.24133401     5.18711701     8.04707498     2.39168784     0.07081104     2.56332884
Ti      1.36359399     0.24459901     5.68410499     1.81579600     1.24606453    -0.51875599
Ti      3.92394303     4.95922402     3.30020101     0.03716171     0.27558765     0.34709366
O       3.21208998     3.28602800     4.28753701     0.98259397    -1.10698682     3.43935775
O       0.59563397     1.96986099     0.25831200     0.00575516    -0.52397096     0.04833933
O       4.90508300     3.71306298     7.71749799    -0.24343548     0.57126745    -0.55302007
O       3.39303500     0.61493101     0.67194102     0.49960692     0.33665317    -1.39565548
O       1.97977301     4.44166200     9.15359499    -1.22363164    -1.35161838     0.55993943
O       2.79884102     0.21379899     4.64903402     0.06818105     1.15384314     0.99897654
O       0.30247999     4.40946702     4.92442702    -0.00088035     1.13925315    -0.41387731
O       4.94272602     3.38966398     2.73306497     0.27937155     0.16674896    -1.80446720
O       0.52588201     1.95171201     5.39147198     0.16938228    -0.76592317     0.22479986
O       2.38392398     1.79191900     2.49775901    -0.33681078     0.37637468    -0.89022706
O       2.50666702     4.11928002     6.75602701    -0.28866197    -2.53144561    -2.05228950
O       5.03083499     0.79740302     2.66263799     0.54865331    -0.22432395    -1.05340218
O       2.21952798     0.90656800     7.30600098    -0.96419053     3.68650719     0.07508267
O       2.20504800     4.46452902     2.62104101    -0.59966658     1.41836578    -2.50996300
