# total energy = -19517.61041323 eV

CRYSTAL
PRIMVEC
        7.60600008     0.00000000     0.00000000
        0.00000000     7.60600008     0.00000000
       -1.89786986    -1.89786986     4.85670466
PRIMCOORD
23 1
Ti      3.73218501     6.65014902     1.25236300     1.83220942    -0.09783977    -0.03172434
Ti      3.77833202     2.85072298     1.13178298    -0.17796154     0.08845318     1.30899898
Ti      0.03460100     6.53234802     1.27306600    -2.56107989    -0.66043694    -1.79285892
Ti     -0.04486301     2.75681799     1.09248802     1.91846585     1.60480374    -0.28142200
Ti      5.67735422     2.90771723     3.59925283    -0.56376291    -0.56626923     0.83214042
Ti      5.72525222    -0.97629980     3.69756079    -0.71049300    -0.27164178    -0.84713458
Ti      1.91231820     2.99134221     3.69193182     1.74401206     0.03488834    -0.14631331
Ti      1.86702624    -0.82507676     3.53826780     0.34309096    -0.66209942     1.17957963
O       3.59714501     4.74263701     0.78522998     0.14726436     0.60525256     0.48458679
O       3.67661198     0.98955601     0.78833398     0.30916190    -0.59642442    -0.30477303
O      -0.00625699     4.65237498     0.72802301     0.64070886     1.55607232     0.98731195
O       0.09280801     0.93435499     0.84876300    -0.33131299    -0.74453442    -0.53526608
O       5.56282423     4.72715821     4.10095880     1.06759005     1.24239042     0.25584928
O      -1.47567977     1.11301724     3.97758281    -0.53989073    -2.20135929     0.23244787
O       2.05481024     4.80936124     3.94569681    -0.97638064     0.36902517     1.05325434
O       1.86857922     1.05695620     4.04687180    -0.24220803    -1.74055650     0.10032577
O       3.92438722     2.77316423     3.41189381    -1.72869651    -0.15833836    -1.15273756
O       3.82086724    -0.94725876     3.24076181    -0.62092936     0.89940487    -0.49253279
O      -0.12799676    -0.94802279     3.18821080     2.97150782    -0.24032110     0.85253904
O       5.75309499     6.40154498     1.66537700    -1.88334405     0.73953156    -0.21078477
O       5.83637400     2.98235403     1.66922402    -1.42428781    -0.53241987    -0.33795929
O       1.84341599     6.40791400     1.62112302     1.20966772     0.94498746     0.47264607
O       1.88097699     2.74586699     1.88535302    -0.42333126     0.38743119    -1.62617373
