# total energy = -19961.03363497 eV

CRYSTAL
PRIMVEC
        7.60600008     0.00000000     0.00000000
        0.00000000     7.60600008     0.00000000
       -1.89786986    -1.89786986     4.85670466
PRIMCOORD
24 1
Ti      3.76526399     6.54328802     1.26316102    -0.26727733     0.63969867    -0.63881550
Ti      3.78222100     2.81730301     1.25339701    -0.71514695    -0.69050138    -0.52053134
Ti      0.04095398     6.72885402     1.15361900    -0.24696715    -0.39706666     1.46266051
Ti     -0.02575400     2.91412800     1.17151302     0.83353961     0.57097486    -0.02300418
Ti      5.73331921     2.95740221     3.58684384     0.53760219    -0.42492946     1.33774161
Ti      5.71497222    -0.93588278     3.58519280     1.60919647     0.32932450     0.61463169
Ti      1.89157424     2.77605322     3.62698881    -0.86879099    -0.00255131    -0.19737569
Ti      1.91470723    -1.06185379     3.63528080    -1.52685069     0.23142277     0.70551740
O       3.56858399     4.68250798     0.82779700     1.05401590     0.36125401    -0.63333056
O       3.67021100     0.90373600     0.98995098     0.79040574    -0.40612209    -0.70841477
O       0.08247402     4.88553202     0.73505599    -0.51838627    -1.34024870     0.48445618
O       0.06826201     1.02131601     0.67610998    -0.56868735     0.23050951     0.93012982
O      -1.57349379     4.78287824     4.16186181    -0.76579410     0.75382844    -2.22075287
O       5.72382424     1.06998920     4.12507981    -0.43674934    -0.65913648    -1.49255139
O       1.63971323     4.63389421     4.11576380     1.06767412     0.84318485     0.42245040
O       1.89141422     0.80750723     4.02551680     0.54496197     1.11316904     0.69076517
O       3.75852920     2.95770723     3.21970881     0.25086546    -0.20342884     0.38237589
O       3.82183621    -1.17000878     3.22891279     0.04633670    -0.07022919     0.27819012
O      -0.00831279     2.81495722     3.15199280     0.35654246    -0.46214337     0.22262573
O       0.02866225    -0.95752078     3.16445180    -0.55219192     0.31370787     0.99028492
O       5.78253302     6.62572299     1.67314400    -1.76026092     0.19596776    -1.08921741
O       5.70834501     3.07997998     1.68531799    -0.58385018    -0.32841536    -1.17569572
O       1.84293597     6.64277800     1.75274703     1.95708229    -0.02185310    -0.60732153
O       1.88898498     2.95278302     1.58650398    -0.23727023    -0.57641609     0.78518177
