# total energy = -19960.45962459 eV

CRYSTAL
PRIMVEC
        7.60600008     0.00000000     0.00000000
        0.00000000     7.60600008     0.00000000
       -1.89786986    -1.89786986     4.85670466
PRIMCOORD
24 1
Ti      3.77487300     6.88965803     1.21194301     1.60264530    -1.68671989     0.60849216
Ti      3.79665198     2.91280400     1.25561098     0.30548291     1.52072915    -1.62869238
Ti      0.03460200     6.47687299     1.24724501    -1.63644349     0.69048981    -0.06511938
Ti      0.03925098     2.75830101     1.21740301    -0.16531068    -0.02370892    -0.37550024
Ti      5.67776523     2.83286225     3.57108483     0.19602586     0.48695941     0.80250150
Ti      5.58269521    -1.03905276     3.61573681     0.62064859    -0.65837517     0.72026731
Ti      1.93422323     2.98864425     3.65157179    -0.40800260    -1.98376289     0.79348258
Ti      1.90401922    -0.95324376     3.61734482    -0.61616844     2.01696999     0.04913097
O       3.90314901     4.76421300     0.77292502    -0.63354062     1.39243903     0.07027907
O       4.10138701     1.12019997     0.73062101    -0.95506002    -2.48261674     0.34239008
O       0.14528202     4.68357998     0.73011400     0.15085979    -0.78755619    -0.00428989
O      -0.02507702     0.70239702     0.83338601     0.46889791     2.58357731     0.00059058
O       5.20301122     4.70140622     4.08218581     1.38145501    -0.56867192     0.03642509
O       5.64272121     0.90772425     4.03222179     0.34688771    -0.39537488     0.66185902
O       2.12169321     4.87502922     4.02646080    -0.59944727    -0.61352715     1.08774416
O       1.89844820     1.09143723     4.06226080    -0.63143077    -1.10002196    -0.47274403
O       3.82621325     2.80271423     3.13092684    -0.31907711    -0.02668215     1.08245694
O       3.74605120    -0.82972675     3.18670281    -0.09663675     0.70528780    -0.46100154
O       0.00941824     3.14562521     3.18433283     0.26466791    -0.38826552     0.14428368
O      -0.10137676    -1.17742176     3.19828782     1.18778300     0.28332256     0.69454367
O       5.65079402     6.50035502     1.72326302    -0.77014133     0.37544754    -0.89304088
O       5.74545298     2.87813902     1.65944699     0.73752507    -0.20726570    -0.56188421
O       1.90390698     6.51284398     1.71831801     0.59780947     0.68806577    -1.49807284
O       1.94835999     2.67361699     1.71354002    -1.02942998     0.17926124    -1.13410168
