# total energy = -19925.21127367 eV

CRYSTAL
PRIMVEC
        7.53589553     0.00000000     0.00000000
        0.00002652     4.31871562     0.00000000
        0.00000000     0.00000000    11.40118007
PRIMCOORD
24 1
Ti      2.73141549     2.55926701     4.22975664     0.32321813     0.00349902     1.99584528
Ti      4.80450674     1.75944896     7.17142390    -0.32321813    -0.00349902    -1.99584528
Ti      6.49923410     1.75945049     1.47078811     0.32290677    -0.00359312    -1.99602886
Ti      1.03668812     2.55926560     9.93039255    -0.32290677     0.00359312     1.99602886
Ti      2.73140234     0.39990926     1.47083381     0.32321813     0.00349902    -1.99584528
Ti      4.80451988     3.91880683     9.93034686    -0.32321813    -0.00349902     1.99584528
Ti      1.03667498     0.39990756     7.17137821    -0.32290677     0.00359312    -1.99602886
Ti      6.49924724     3.91880847     4.22980234     0.32290677    -0.00359312     1.99602886
O       2.38516793     1.52069325     5.81793511     1.41784025     0.87273789    -1.28852657
O       5.15075430     2.79802266     5.58324544    -1.41784025    -0.87273789     1.28852657
O       1.38284270     1.52071066     0.11738152    -1.41790530     0.87293613    -1.28932515
O       6.15307959     2.79800531    11.28379867     1.41790530    -0.87293613     1.28932515
O       5.15074116     0.63866485     0.11734454    -1.41784025    -0.87273789    -1.28852657
O       2.38518107     3.68005112    11.28383565     1.41784025     0.87273789     1.28852657
O       6.15306645     0.63864745     5.81797209     1.41790530    -0.87293613    -1.28932515
O       1.38285566     3.68006852     5.58320840    -1.41790530     0.87293613     1.28932515
O       0.27381263     2.62688768     3.07974328    -1.84992304     0.65335021     0.57848531
O       7.26210959     1.69182829     8.32143727     1.84992304    -0.65335021    -0.57848531
O       4.04176970     1.69178790     2.62088321    -1.84964459    -0.65331293    -0.57893963
O       3.49415253     2.62692807     8.78029710     1.84964459     0.65331293     0.57893963
O       0.27379949     0.46752982     2.62084682    -1.84992304     0.65335021    -0.57848531
O       7.26212273     3.85118615     8.78033349     1.84992304    -0.65335021     0.57848531
O       3.49413939     0.46757020     8.32147360     1.84964459     0.65331293    -0.57893963
O       4.04178284     3.85114577     3.07970689    -1.84964459    -0.65331293     0.57893963
