# total energy = -19904.13032442 eV

CRYSTAL
PRIMVEC
        6.08927273     0.00000000     0.00000000
        0.00002143     3.48967646     0.00000000
        0.00000000     0.00000000     9.21256068
PRIMCOORD
24 1
Ti      2.20708126     2.06797915     3.41779443    -1.35029812     3.04374993    -4.80309914
Ti      3.88221303     1.42169760     5.79476663     1.35029812    -3.04374993     4.80309914
Ti      5.25161327     1.42169883     1.18844932    -1.34812502    -3.04345554     4.80654210
Ti      0.83768103     2.06797801     8.02411184     1.34812502     3.04345554    -4.80654210
Ti      2.20707064     0.32314097     1.18848625    -1.35029812     3.04374993     4.80309914
Ti      3.88222365     3.16653587     8.02407492     1.35029812    -3.04374993    -4.80309914
Ti      0.83767041     0.32313959     5.79472971     1.34812502     3.04345554     4.80654210
Ti      5.25162389     3.16653720     3.41783135    -1.34812502    -3.04345554    -4.80654210
O       1.92730087     1.22877446     4.70109935     5.03948131    -3.66865678     6.40266940
O       4.16199343     2.26090224     4.51146172    -5.03948131     3.66865678    -6.40266940
O       1.11738629     1.22878852     0.09484846    -5.03818779    -3.67080700     6.40537908
O       4.97190806     2.26088822     9.11771232     5.03818779     3.67080700    -6.40537908
O       4.16198281     0.51606401     0.09481858    -5.03948131     3.66865678     6.40266940
O       1.92731149     2.97361274     9.11774220     5.03948131    -3.66865678    -6.40266940
O       4.97189744     0.51604995     4.70112923     5.03818779     3.67080700     6.40537908
O       1.11739676     2.97362680     4.51143178    -5.03818779    -3.67080700    -6.40537908
O       0.22125039     2.12261907     2.48854256     4.86639689    -1.21600858     2.19514287
O       5.86804391     1.36705768     6.72401851    -4.86639689     1.21600858    -2.19514287
O       3.26589426     1.36702505     2.11776724     4.86695019     1.21648320    -2.19641043
O       2.82340003     2.12265170     7.09479364    -4.86695019    -1.21648320     2.19641043
O       0.22123977     0.37778079     2.11773783     4.86639689    -1.21600858    -2.19514287
O       5.86805453     3.11189595     7.09482304    -4.86639689     1.21600858     2.19514287
O       2.82338942     0.37781342     6.72404786    -4.86695019    -1.21648320    -2.19641043
O       3.26590488     3.11186332     2.48851315     4.86695019     1.21648320     2.19641043
