# total energy = -19953.12555822 eV

CRYSTAL
PRIMVEC
        5.61744703     0.00000000     0.00000000
        0.29877719     5.97119215     0.00000000
        0.00000000     0.00000000    10.05713878
PRIMCOORD
24 1
Ti      2.21310938     3.53852279     3.73112676     0.10532965    -0.84243640     0.58662646
Ti      3.70311461     2.43266913     6.32601214    -0.10532965     0.84243640    -0.58662646
Ti      4.96640729     2.43267117     1.29740250    -0.08029635     0.29579576    -0.33467805
Ti      0.94981677     3.53852098     8.75973651     0.08029635    -0.29579576     0.33467805
Ti      2.06372090     0.55292694     1.29744281     0.10532965    -0.84243640    -0.58662646
Ti      3.85250310     5.41826515     8.75969620    -0.10532965     0.84243640     0.58662646
Ti      0.80042828     0.55292473     6.32597178     0.08029635    -0.29579576    -0.33467805
Ti      5.11579577     5.41826737     3.73116712    -0.08029635     0.29579576     0.33467805
O       1.88316189     2.10255817     5.13208094     1.06934714     1.06517501    -0.11484762
O       4.03306210     3.86863375     4.92505796    -1.06934714    -1.06517501     0.11484762
O       1.13600460     2.10258227     0.10354387    -0.85747736     0.67766745     0.21270050
O       4.78021945     3.86860971     9.95359474     0.85747736    -0.67766745    -0.21270050
O       3.88367362     0.88303773     0.10351126    -1.06934714    -1.06517501    -0.11484762
O       2.03255037     5.08815419     9.95362735     1.06934714     1.06517501     0.11484762
O       4.63083097     0.88301369     5.13211361     0.85747736    -0.67766745     0.21270050
O       1.28539297     5.08817835     4.92502529    -0.85747736     0.67766745    -0.21270050
O       0.38582806     3.63201742     2.71668414     0.27504335     0.04531262     0.37947980
O       5.53039599     2.33917450     7.34045482    -0.27504335    -0.04531262    -0.37947980
O       3.12987059     2.33911887     2.31191729     0.42373956     0.41935274    -0.10466425
O       2.78635346     3.63207306     7.74522143    -0.42373956    -0.41935274     0.10466425
O       0.23643958     0.64642140     2.31188520     0.27504335     0.04531262    -0.37947980
O       5.67978447     5.32477052     7.74525353    -0.27504335    -0.04531262     0.37947980
O       2.63696498     0.64647704     7.34048686    -0.42373956    -0.41935274    -0.10466425
O       3.27925907     5.32471489     2.71665198     0.42373956     0.41935274     0.10466425
