# total energy = -4984.58853334 eV

CRYSTAL
PRIMVEC
        4.12535299     0.00000000     0.00000000
        0.00000000     3.11220492     0.00000000
        0.00000000    -0.00008228     5.45641824
PRIMCOORD
6 1
Ti      2.06267644     1.55606116     2.72820917     0.00000000     0.00000000     0.00000000
Ti      0.00000000     0.00000000     0.00000000     0.00000000     0.00000000     0.00000000
O       2.06267644     0.60650680     1.06337558     0.00000000    -0.43076998     1.46854731
O       2.06267644     2.50561551     4.39304277     0.00000000     0.43076998    -1.46854731
O       0.00000000     0.94952164     3.79158587     0.00000000     0.43021437     1.46829277
O       0.00000000     2.16260067     1.66483247     0.00000000    -0.43021437    -1.46829277
