# total energy = -4988.66099523 eV

CRYSTAL
PRIMVEC
        2.97495156     0.00000000     0.00000000
        1.14739784     4.51787833     0.00000000
       -0.00000738    -0.00006108     4.69872535
PRIMCOORD
6 1
Ti      2.06117090     2.25890853     2.34936273     0.00000000     0.00000000     0.00000000
Ti      0.00000000     0.00000000     0.00000000     0.00000000     0.00000000     0.00000000
O       1.71108519     0.88045599     0.91571239    -1.62494320     0.75723259     0.72421061
O       2.41125654     3.63736109     3.78301306     1.62494320    -0.75723259    -0.72421061
O       0.35008257     1.37842782     3.26507606     1.62482159    -0.75716059     0.72434096
O       0.79730778     3.13938933     1.43364939    -1.62482159     0.75716059    -0.72434096
