# total energy = -19075.60373445 eV

CRYSTAL
PRIMVEC
        7.60600008     0.00000000     0.00000000
        0.00000000     7.60600008     0.00000000
       -1.89786986    -1.89786986     4.85670466
PRIMCOORD
22 1
Ti      3.77152500     6.60470603     1.19184200     0.60040578     0.24922201     0.74358311
Ti      3.84361201     2.85043300     1.24299302     0.26365259    -0.96225860     0.66428486
Ti      0.36689102     6.73311501     0.97642500    -1.34641498     0.22956026     0.12461473
Ti      0.02491499     2.92326202     1.13376300    -0.48750448    -0.32740234    -0.56840401
Ti      5.74185125     2.88618024     3.61028681    -2.27221840     0.52678761    -0.60407114
Ti      6.06980821    -0.84863478     3.52221579    -0.79558780    -0.73756210     1.06857735
Ti      1.76982924     2.78317324     3.69003779     2.73981688    -1.63561534    -0.81631090
Ti      1.32877625    -1.07554980     3.90887380     1.01837320     1.11039945     0.05750866
O       3.80024202     4.64199200     0.77504702    -0.41366571     1.69910156     0.57469679
O       3.82230099     0.95922097     0.87151900    -0.72353389    -1.42586826     0.44334114
O      -0.24276398     4.88307198     0.74590301     1.41930372    -1.04296890     0.03105071
O      -0.14867902     0.86373200     0.67872899     0.76472093     2.14419079     0.36162862
O       5.62964424     4.83123123     3.93710382     0.87995396    -0.16122597    -1.22001770
O       5.59848025     1.02898421     3.97735384     1.07812720    -1.38421355     0.72082421
O       2.01247421     4.67845522     4.22293981    -0.71749283     1.09485841    -1.26088591
O       1.99802222     0.86488322     4.03841280    -1.27123769    -0.19700905     0.01503839
O       3.78740021     2.76684024     3.16081879     0.23804259     0.60655791     0.24645293
O       0.02234123     2.84462025     3.19066280    -0.61766843     0.24600941     0.35368648
O       5.59163502     6.72765602     1.73719101    -0.65477357    -0.30057107     0.58416360
O       5.75360602     2.82372500     1.60566401     0.13166907     0.19608808     0.24431917
O       1.88360002     6.54603101     2.11861801     1.34708526    -0.20990700    -1.31596565
O       1.89712500     2.83039602     1.62992599    -1.18105339     0.28182746    -0.44811542
