# total energy = -19517.75489458 eV

CRYSTAL
PRIMVEC
        7.60600008     0.00000000     0.00000000
        0.00000000     7.60600008     0.00000000
       -1.89786986    -1.89786986     4.85670466
PRIMCOORD
23 1
Ti      3.69945699     6.73496602     1.26644700     0.94553999    -2.19367117     0.48959067
Ti      3.83881000     2.79860702     1.17580899    -0.28746307     2.53409179    -1.35816441
Ti      0.02688803     6.63646301     1.22499400    -1.10349423    -1.83977438    -0.61531998
Ti      0.01728198     2.73128101     1.12454701    -0.27701230     2.31120688    -0.33665703
Ti      5.55501320     2.85312820     3.56259582     0.58143334    -0.34003752     2.36195585
Ti      5.82920523    -1.01014878     3.65758182    -0.95550276     0.33832619    -1.62359800
Ti      2.11474623     3.00850925     3.66468681    -1.45164101    -0.77817551     2.08624273
Ti      1.90014723    -0.85796476     3.69031683     0.63569958     0.04541675    -0.25656020
O       3.83543300     4.76732699     0.89698603     0.32711206    -0.09531340    -0.54598039
O       3.45766802     0.98814400     0.78220600     0.31906965    -0.35597785    -0.06983659
O       7.28280201     4.71755798     0.69732401     0.97330329    -0.20732972     0.15798304
O       0.23987901     0.91773200     0.79633900    -0.25932182    -1.30711437    -0.07502122
O       5.34209921     4.71196823     3.95795780     1.70791993     0.72037632     0.53625801
O      -1.57194478     0.93043823     4.04347581    -0.97724556     0.36818854     0.08197503
O       2.10161120     4.84195221     4.11216979    -0.61849529    -0.20145861     0.30715387
O       1.61938923     1.11154925     4.03436681     0.90351530    -0.70281954     0.15684789
O       3.78610622     2.71092123     3.02233284     0.22563701    -0.48310301     1.86081192
O       3.77428625    -0.84756775     3.27421380    -0.02590747     1.03506198    -0.36816694
O       0.08116124    -0.82580179     3.19616783    -0.78346582    -1.03878905    -0.28332050
O       5.73026999     6.56314900     1.69373799    -0.21092824     0.98964626     0.30488461
O       5.71252302     2.61833898     1.67236299     1.25787618    -0.24866253    -1.72450329
O       1.87462602     6.23935200     1.57658403    -0.03560722     1.38539086     0.27680353
O       1.74645802     2.97461402     1.87711998    -0.89102127     0.06452083    -1.36337886
