# total energy = -19516.52184772 eV

CRYSTAL
PRIMVEC
        5.17600016     0.00000000     0.00000000
        0.00000000     5.50899976     0.00000000
        0.00000000     0.00000000     9.26300011
PRIMCOORD
23 1
Ti      1.91027701     3.25451200     3.52416999    -0.75079094    -1.38618507     0.88312593
Ti      3.40974800     2.31637498     5.91137699    -0.03143432    -0.80438586    -2.33254088
Ti      4.31868899     2.22546900     1.39787902    -0.71046986    -0.46317901     0.95737119
Ti      0.75350797     3.49722698     7.80203999     1.26253990    -0.37520457     0.92124486
Ti      2.04076402     0.22067898     1.53850200    -1.35333279    -0.03002021    -1.98424163
Ti      3.22457301     5.12065600     8.06582299    -1.63954424    -0.70382895     0.23979942
Ti      0.83793799     0.51500800     5.93343601    -1.17094586     0.44415335    -2.94095873
Ti      4.47670899     4.91351401     3.20857598     1.20738972     1.08086517     2.78457286
O       1.57170401     1.99598002     4.86372801     1.35797003    -0.12145639     0.14901451
O       3.57887099     3.55935498     4.25111998     0.62695860    -0.34906441     2.35579806
O       4.83268298     2.76954301     9.07581799    -0.07703362     0.80819881     0.41808673
O       3.20878098     0.82337900     0.09736401     0.57218894     2.15677017     2.63911470
O       1.78409702     4.55116698     9.18581902    -1.48445781    -1.53876493    -0.71847705
O       4.44023698     0.79013598     4.64794101    -0.55893669    -0.68192777     0.36318003
O       1.06422398     4.68893399     4.33919302    -0.20802803     0.89384717     0.64486017
O       0.23159802     3.36592498     2.40181102     0.70968541    -0.03719873    -0.39475601
O       5.10116100     2.08685801     6.74689802    -0.14956447     0.07312631    -0.11736910
O       2.66859600     1.63908399     2.53866197     0.51709480    -0.18702134    -1.27476345
O       2.49114800     3.57050999     6.90292201    -0.06761130    -0.48730033     0.59871039
O       0.09777201     0.68927702     1.87232198     1.13445804    -0.68089470    -0.24945675
O       4.88100400     4.88793400     7.36931402     1.62931793     0.88217847    -1.59180964
O       2.59388300     0.74139802     6.85181100    -0.97085457     1.18693273    -1.30178369
O       3.00513601     4.25312303     2.07662398     0.15540139     0.32036034    -0.04872217
