# total energy = -19961.38611630 eV

CRYSTAL
PRIMVEC
        7.60600008     0.00000000     0.00000000
        0.00000000     7.60600008     0.00000000
       -1.89786986    -1.89786986     4.85670466
PRIMCOORD
24 1
Ti      3.74415802     6.66999300     1.24370799     1.15865136     0.62182256     0.30713304
Ti      3.81625001     2.94727100     1.22035502    -0.41859863    -0.46167337     0.20536874
Ti      0.05231700     6.63012802     1.19024098    -0.77047326     0.07724625     0.27943428
Ti      0.00450298     2.84241998     1.25701600     0.06976023    -0.39975938    -2.01440402
Ti      5.78053622     2.80282821     3.64210079    -1.62802647    -1.00254806     0.59340209
Ti      5.74088523    -1.05356476     3.63710980    -0.67595664     1.07540286    -1.20267226
Ti      1.84215724     2.88234222     3.60725383     1.00598254     0.70310802     0.43159505
Ti      1.86422425    -0.90908180     3.69101180     0.68290145    -0.91341456     0.09011643
O       3.77624198     4.85686802     0.67090801     0.21151959    -2.06463003     0.76843720
O       3.64498301     0.96022800     0.84227201     0.55584854     0.88224584    -0.04848614
O       0.08279798     4.73160801     0.76451200    -0.67562163    -0.13772402     0.00238239
O       0.04168700     0.93679698     0.68188600    -0.02672688    -0.24654446     1.60430623
O       5.84887724     4.69027122     4.05355880    -0.09815961    -0.17388017    -0.07451908
O       5.68592822     0.84202822     3.94713882    -0.28699076     1.72646942     0.76699892
O       1.76751123     4.78137422     4.11027983     0.00981236    -0.03621734    -0.91386810
O       1.86349022     0.95577624     4.11700980     0.41127124     0.40822371    -0.37728639
O       3.69457221     2.86432723     3.18477480     0.51034103     0.03682901    -0.32043028
O       3.82292124    -1.12825580     3.22686583    -0.70742130     0.30243229     0.37901366
O      -0.05526579     2.69010123     3.24704679     1.70230412     0.01304295    -0.56096632
O       0.05754522    -0.90029979     3.15068679    -0.51445916    -0.12918358     0.21850708
O       5.67753298     6.68355502     1.65738802     0.92854782    -0.22191482    -0.70559556
O       5.75746398     3.00219701     1.69719802    -1.61377998    -0.14535840    -0.73541651
O       1.92402202     6.55423601     1.66764199    -0.73167478     0.36728299    -0.00920635
O       1.82709802     2.99440599     1.46407898     0.90094805    -0.28125771     1.31615642
