# total energy = -19960.68747513 eV

CRYSTAL
PRIMVEC
        5.93400000     0.00000000     0.00000000
        0.00000000     9.29699974     0.00000000
        0.00000000     0.00000000     4.64899994
PRIMCOORD
24 1
Ti      4.49451601     6.94736697     2.41332798    -0.60822579     0.23191770    -0.98926728
Ti      4.43695502     2.33861302     2.23675000     0.00030570    -0.60933702     0.81003535
Ti      1.48235502     6.97252999     2.34955302     0.68314133     0.28741782    -0.60063486
Ti      1.48855999     2.42569501     2.30758397     0.29535507    -1.61835680     0.03453636
Ti      2.97919098     4.67458598     4.62370702     0.81686163    -0.36203974     0.12715678
Ti      2.98167398     9.28738301     0.01497598    -0.35984196     1.34930233     0.50763391
Ti      0.02444799     4.63222598     0.02219697    -0.54674478    -0.45288971     0.05697438
Ti      5.93047600     0.00604199     4.59788402     1.05802631     1.45659244     0.76226501
O       4.39009601     5.59577398     0.95362000     0.36162168    -1.10067193    -0.82766695
O       4.48672398     0.92643998     0.90962299    -0.26898994    -0.23557279    -0.21039139
O       1.49406598     5.45802697     0.96905600    -0.45032734     0.58438085    -0.27428204
O       1.35254001     0.91946002     0.93800499     0.81693388    -0.69757037    -0.58049077
O       4.46936099     8.45758699     3.83532700    -0.75747581    -1.35945022    -1.27116827
O       4.40426600     3.74108398     3.72444802     0.33902476     0.54255902     0.34696690
O       1.60601798     8.34398501     3.83339201    -1.18230783    -0.51846083    -0.78721243
O       1.44014398     3.70218701     3.69701801    -0.15450742     1.30648419     1.02055736
O       2.94725100     6.03913302     3.21123499    -0.33512979    -0.26828366     0.62872212
O       2.87214397     1.42076498     3.20928502     0.74839724    -0.32796696     0.40826022
O       0.00368800     6.00252200     3.20150601     0.65201555     0.17353230     0.78944132
O       5.86554701     1.49619401     3.15832001     0.18540437    -1.31861183     1.09422489
O       3.07143398     7.82131500     1.53280800    -1.42848899     1.02071676    -0.81921856
O       2.94212899     3.14601998     1.27667499     0.01377238     0.47791992     0.34499281
O       5.85284601     7.81016201     1.35406499     1.06064987    -0.08586305     0.97035269
O       0.01479998     3.20892000     1.45098799    -0.93947039     1.52425156    -1.54178752
