# total energy = -19517.31486087 eV

CRYSTAL
PRIMVEC
        5.93400000     0.00000000     0.00000000
        0.00000000     9.29699974     0.00000000
        0.00000000     0.00000000     4.64899994
PRIMCOORD
23 1
Ti      4.53923101     7.09135002     2.27384803     1.02792588    -1.06090004     0.72890545
Ti      4.40732200     2.22890400     2.32827698    -1.02782715     0.42155052    -0.43584688
Ti      1.46302502     7.16867001     2.13921798     0.19593047    -0.93306371     0.74639821
Ti      1.40268802     2.26980601     2.41301497     1.53484554     0.26938563    -0.74768916
Ti      3.04537300     4.57153803     0.10044700    -0.35066389    -1.51615901     0.66618876
Ti      2.86627799     9.19353998     4.58741001     2.09784587     2.12925884     1.21413296
Ti      0.05932902     4.66723899     0.05730201     0.12800679     0.30970800    -1.18478663
Ti      5.86454999     0.12830098     4.61004398    -0.12279825    -0.32689095     1.43301131
O       4.40730803     5.55549502     0.92681400     0.12887377     0.31171115     0.21926736
O       4.36405699     0.89029199     0.76619003     1.59207292     0.91153226     1.87710886
O       1.50660700     5.66908302     0.97901199     0.23558024    -0.65391997    -0.61498342
O       1.63137202     0.88501201     1.02685300    -1.27047716    -0.67394681    -0.49365199
O       4.58162198     8.35850701     3.71821600    -0.69919222    -0.58070752    -0.02753910
O       4.43772699     3.76426199     3.69701002    -0.27395706     0.12896478     0.28776697
O       1.57460199     8.40233400     3.77898000    -2.82930082    -2.24673825    -2.00707252
O       1.45747898     3.68323098     3.84934401     0.17945972     0.44319921    -0.37770419
O       2.89638199     1.34362099     3.40865398     0.77873833     1.53462674    -2.22636636
O       0.03203401     5.97886503     3.23285802    -0.18069643     0.78444258    -0.32026136
O       5.92610298     1.28281699     3.19921197    -0.35358492     0.69013345    -0.31464529
O       3.05294998     7.85733901     1.31259702    -0.23533496    -1.29901873     1.84804022
O       2.93782799     3.16677097     1.42352501     0.50370038     0.39687897     0.30858392
O       5.92736798     8.02297800     1.50197601    -0.32800681     0.23568180    -0.83376716
O       0.02255697     3.05769500     1.37320300    -0.73114025     0.72427154     0.25490980
