# total energy = -4986.92556246 eV

CRYSTAL
PRIMVEC
        3.78268629     0.00000000     0.00000000
        0.00000000     3.55614113     0.00000000
        0.00000000    -0.00007004     5.05762288
PRIMCOORD
6 1
Ti      1.89134298     1.77803565     2.52881155     0.00000000     0.00000000     0.00000000
Ti      0.00000000     0.00000000     0.00000000     0.00000000     0.00000000     0.00000000
O       1.89134298     0.69302592     0.98565626     0.00000000    -0.27120212     0.48404609
O       1.89134298     2.86304539     4.07196689     0.00000000     0.27120212    -0.48404609
O       0.00000000     1.08498176     3.51446880     0.00000000     0.27142298     0.48479711
O       0.00000000     2.47108954     1.54315430     0.00000000    -0.27142298    -0.48479711
