# total energy = -39037.20211324 eV

CRYSTAL
PRIMVEC
        7.60600008     0.00000000     0.00000000
        0.00000000     7.60600008     0.00000000
       -3.79573973    -3.79573973     9.71340985
PRIMCOORD
46 1
Ti      1.89969844     4.88355543     6.28882563    -0.49357434     0.01584931    -0.15070167
Ti      3.87168201     6.71294399     1.22492902     0.60545697     0.85072642    -0.45174119
Ti      1.81445343     0.94738545     6.03599564     0.55772828    -0.33301069    -0.91594479
Ti      3.86460702     2.86571098     1.11990401    -0.23958937    -1.36738439    -0.54467092
Ti     -1.99356453     4.80220046     6.14214161     0.82177630     0.84947429    -0.44015220
Ti      0.13028698     6.52587698     1.18323599    -0.14969380     0.81129493     1.27930942
Ti     -2.07269055     1.08400647     6.08644163    -0.21775889    -1.18125650    -0.41346851
Ti      0.03578498     2.83390700     1.15630399    -0.31812580    -0.57809836     0.54282333
Ti      3.66875545     0.83895745     8.46341265     0.32560154    -0.28618086    -0.09930221
Ti      5.62423202     2.84684099     3.64294001     0.92246459    -0.25750996    -0.88473004
Ti      3.82574847    -3.00022757     8.56195064     0.22600597     0.61290031     0.82813027
Ti      5.74567201    -0.89742900     3.64121701     0.95697884     0.44485321    -0.30327639
Ti     -0.08364456     0.84352245     8.25478563    -0.27822252    -0.72079310     1.70705861
Ti      1.94976702     3.04852902     3.51060802    -1.04711917    -1.65883138    -0.20622235
Ti     -0.00020156    -3.02453258     8.51020065    -0.29676558     0.56495282     1.32486835
Ti      2.09690698    -1.00185001     3.73199499    -1.58095161     1.12593020     0.37110057
O       1.98251843    -0.91809454     5.86156664     0.22934172     1.03417161    -0.85729584
O       3.97725202     0.93712502     0.80505799    -0.71725346    -0.81499064    -0.64757242
O      -2.00427953     2.95279445     5.63085764     0.35914056     0.10680778    -0.39132847
O      -0.22805798     4.69940900     0.68050803     0.67318756    -0.15475347     0.64712711
O      -2.09253057    -0.78413755     5.62365665     0.07938978    -1.23381013     0.06134449
O       0.25092601     0.82192901     0.80389200    -0.52786310     0.74059908    -0.08751653
O       3.89234247     2.75764446     8.92503561     0.07563468    -0.02433961    -0.29868799
O       5.71408399     4.91471699     4.07470398    -0.11008234    -1.51907362     0.27629830
O       3.57916743    -1.05328853     8.91279865     0.28517941     0.19521905    -0.11356053
O       5.74595099     1.01620601     3.98460298     0.10529854     0.52690768     0.57777055
O      -0.17438354     2.63531244     9.00846363    -0.04977529     0.01792677    -0.63835861
O       1.88653103     4.79909599     4.29802102     0.66536832    -1.25415348    -1.29620697
O       0.04771343    -1.04023357     8.90999962    -0.22532514     1.85134640    -0.65970186
O       1.92121399     1.20958701     4.15540299     0.09306188    -0.19436056     0.55789103
O       1.82957944     1.02588344     7.96614060    -0.59274954    -0.07731439     1.09438610
O       3.81106402     2.55005500     3.05683001    -0.70258428     1.69757329     1.07051468
O       1.83553046    -2.89091855     8.25982361     1.15085037    -0.78005859    -0.72485056
O       3.87573403    -0.73247000     3.21700101     0.45445397    -0.51568378     0.53825113
O      -2.04907353     0.55323846     7.95293260     0.53285619     1.00976386     0.24146036
O       0.04655601     2.70874499     3.17655298    -0.32687938     1.09204279    -0.53800354
O      -1.88757557    -2.76740053     8.15819861    -0.50358545    -0.26529089    -0.83063889
O       0.29119301    -0.86758901     3.20791900    -1.98447226    -0.23807910     0.00714844
O       3.78806645     4.53975442     6.58889860    -0.36694592     0.30103233    -0.29291869
O       5.75918302     6.55046700     1.58843299     0.69528157    -0.02998396     0.69959692
O       3.67701447     1.30006547     6.50917863     0.22890411    -0.08223728    -0.60246189
O       5.64017402     2.87945001     1.56261999     1.34007926     0.72156649     0.48713835
O       0.02858245     4.71157246     6.48985763    -0.60885057    -0.35378470     0.23456620
O       2.07576201     6.56112002     1.68354202    -0.70080173    -1.01844262    -0.33988557
O      -0.08051755     1.03791947     6.38747760    -0.17637466     0.40627379    -0.39275801
O       1.87173301     3.20574499     1.47142301     0.83130275    -0.03779060     0.57517245
