# total energy = -39040.34732913 eV

CRYSTAL
PRIMVEC
        7.60629642    -0.00000847    -0.00005503
       -0.00000847     7.60629642    -0.00005503
       -3.80314186    -3.80314186     9.70738094
PRIMCOORD
46 1
Ti      1.89108924     4.83388651     6.09640135     0.05160283    -0.14866433     0.05727134
Ti      3.79265322     6.73557941     1.24274918     0.05163548    -0.14989151     0.05782310
Ti      1.92091087     0.86565187     6.08913618     0.02093830     0.16284139    -0.10871682
Ti      3.82248599     2.76729065     1.23540299     0.02088739     0.16235391    -0.10893948
Ti     -1.88995130     4.74417879     6.06569994    -0.05798663     0.03163255     0.01651523
Ti      0.01162071     6.64576101     1.21198862    -0.05792389     0.03164129     0.01681862
Ti     -1.91501842     0.96134978     6.05911026    -0.05321388    -0.04410472    -0.13905354
Ti     -0.01343722     2.86290788     1.20542351    -0.05309561    -0.04409495    -0.13904891
Ti      3.80377098     0.95435631     8.49849261     0.02514797     0.01819545     0.05483085
Ti      5.70532506     2.85594724     3.64474710     0.02578483     0.01789026     0.05506482
Ti      3.80510400    -2.85610880     8.49700728     0.03931218    -0.02069199     0.00528233
Ti      5.70669180    -0.95456737     3.64333491     0.03890055    -0.02034335     0.00474574
Ti      0.00001297     0.95430915     8.39224583    -0.03723627     0.05710191    -0.06988415
Ti      1.90160749     2.85579185     3.53852096    -0.03790399     0.05728163    -0.06975405
Ti      0.00234246    -2.85390590     8.53443854    -0.04078774    -0.02652505     0.08240646
Ti      1.90389543    -0.95224162     3.68077738    -0.04043704    -0.02661736     0.08210384
O       1.89759673    -0.95176115     5.63625428    -0.01349675    -0.01821679     0.19477785
O       3.79918264     0.94978843     0.78254126    -0.01351321    -0.01416730     0.19496580
O      -1.90164754     2.85103930     5.64499334    -0.00139405     0.03144126    -0.09280966
O      -0.00007057     4.75263160     0.79129633    -0.00146399     0.03114456    -0.09266542
O      -1.90125836    -0.94888074     5.65822257     0.00691936    -0.02379557     0.02709147
O       0.00030247     0.95267240     0.80452592     0.00695227    -0.02349269     0.02723108
O       3.80842849     2.85328291     8.92232550     0.05022292     0.01003785     0.03051849
O       5.71000005     4.75484616     4.06861584     0.05022678     0.00983756     0.03098360
O       3.79309702    -0.95206091     8.90236873    -0.04494547    -0.00903177    -0.08218046
O       5.69466496     0.94951851     4.04865144    -0.04494984    -0.00887211    -0.08172460
O      -0.00467012     2.75922688     8.98551449    -0.04940608     0.04514319    -0.03454998
O       1.89690111     4.66063308     4.13184390    -0.04938088     0.04614515    -0.03308625
O       0.01106309    -0.85672238     8.96512165     0.03899568    -0.08649708    -0.14238466
O       1.91263882     1.04471351     4.11134454     0.03904427    -0.08574298    -0.14272148
O       1.90982562     0.98167210     8.07637326     0.01855489    -0.00583538    -0.07848887
O       3.81139109     2.88329356     3.22264412     0.01897063    -0.00609737    -0.07895115
O       1.88128956    -2.88186941     8.10366886     0.06467947     0.01994817     0.06657000
O       3.78285283    -0.98034277     3.24993787     0.06486767     0.01988441     0.06790954
O      -1.91363447     0.94341551     8.05009519    -0.00993192    -0.02908819    -0.12946075
O      -0.01204691     2.84502225     3.19633453    -0.01039934    -0.02937255    -0.12841020
O      -1.88245175    -2.84566169     8.07816594    -0.06382509     0.02612550     0.00786629
O       0.01911861    -0.94414401     3.22446460    -0.06389991     0.02605274     0.00813343
O       3.78143643     4.68876417     6.47682190     0.04211674    -0.09365015     0.15183193
O       5.68295598     6.59035631     1.62312872     0.04356376    -0.09380442     0.15194711
O       3.78119416     1.01669569     6.45967053     0.07214775     0.11622702    -0.01733438
O       5.68283764     2.91827893     1.60596124     0.06973760     0.11607327    -0.01722177
O       0.01931745     4.68704553     6.47028537    -0.04744690    -0.11456223     0.09112533
O       1.92093984     6.58861324     1.61659047    -0.04908881    -0.11460979     0.09101683
O       0.01941663     1.01868397     6.42507670    -0.01088785     0.10057619     0.10639126
O       1.92092049     2.92027442     1.57136707    -0.00859392     0.10019490     0.10616423
