# total energy = -19076.05674175 eV

CRYSTAL
PRIMVEC
        7.60600008     0.00000000     0.00000000
        0.00000000     7.60600008     0.00000000
       -1.89786986    -1.89786986     4.85670466
PRIMCOORD
22 1
Ti      3.80624400     6.64211103     1.17963102     0.28658709    -0.87426333     0.18450809
Ti      3.81831999     2.80591898     1.25245502     0.12475743     0.60409274     0.65578042
Ti      0.29788800     6.69738798     0.93303998    -0.23291606     0.47987164     0.96229382
Ti     -0.01180399     2.86082201     1.12970500    -0.16764370    -0.20311183    -0.10994684
Ti      5.73094924     2.87835625     3.59487982    -1.50873212    -0.02787617     0.12093291
Ti      6.11292822    -0.87347378     3.53966181    -0.84045383    -0.10976326     1.01570645
Ti      1.83118522     2.81909120     3.67617081     1.08738832    -0.81443400    -0.48673701
Ti      1.31325823    -0.99212675     3.96587979     1.71199050     0.00492521    -2.80408703
O       3.70750302     4.65527202     0.74186798     0.10597294     0.84831138     0.50981292
O       3.86266298     0.91842300     0.88258701    -0.75868886    -0.17086452     1.26119059
O      -0.24236800     4.88734699     0.73663500     1.31120576    -0.37097870    -0.23561470
O      -0.07716701     0.98442098     0.68424698     0.51861407    -0.49588577     0.49377078
O       5.69260823     4.85207224     3.82538080     0.58826219    -0.18814774     0.16893080
O       5.58123822     0.96013222     4.08413181     0.82555248     0.14585539    -1.00306716
O       2.08245821     4.76948921     4.16271981    -1.17596620     0.09081654    -0.41339523
O       1.94724321     0.80574423     4.10587983    -0.88894305     0.40726469    -0.23953769
O       3.76113720     2.78522725     3.28834082    -0.09392835     0.16672273    -0.97102375
O      -0.07016377     2.72833524     3.19316083     1.41592401     0.32735066     0.78760272
O       5.62678202     6.75992297     1.75675200    -0.28664031    -0.23396096     0.07138465
O       5.75907898     2.88578701     1.59992699    -1.76479867    -0.09601223     0.25277553
O       1.97295599     6.51314100     1.99354998    -0.42332972     0.41194976    -0.16718116
O       1.85602898     2.84116800     1.64971299     0.16578608     0.09813750    -0.05409989
