# total energy = -19956.47509101 eV

CRYSTAL
PRIMVEC
        5.16281327     0.00000000     0.00000000
        0.00002569     4.97148067     0.00000000
        0.00000000     0.00000000     8.82234172
PRIMCOORD
24 1
Ti      1.87128675     2.94609479     3.27302593    -0.32655542     1.02935207    -1.51251524
Ti      3.29155222     2.02538577     5.54931609     0.32655542    -1.02935207     1.51251524
Ti      4.45260341     2.02538748     1.13810984    -0.32597666    -1.02843599     1.51690720
Ti      0.71023561     2.94609333     7.68423234     0.32597666     1.02843599    -1.51690720
Ti      1.87127395     0.46035456     1.13814523    -0.32668577     1.02684782     1.51596490
Ti      3.29156507     4.51112616     7.68419694     0.32668577    -1.02684782    -1.51596490
Ti      0.71022276     0.46035275     5.54928075     0.32563779     1.02723786     1.51299398
Ti      4.45261621     4.51112802     3.27306132    -0.32563779    -1.02723786    -1.51299398
O       1.63407206     1.75054280     4.50197357    -0.35891431    -1.16572061     0.65446890
O       3.52876696     3.22093777     4.32036846     0.35891431     1.16572061    -0.65446890
O       0.94738292     1.75056290     0.09083096     0.35991472    -1.16594069     0.65348133
O       4.21545614     3.22091772     8.73151087    -0.35991472     1.16594069    -0.65348133
O       3.52875411     0.73519739     0.09080235     0.36009753     1.16552443     0.65276657
O       1.63408491     4.23628318     8.73153947    -0.36009753    -1.16552443    -0.65276657
O       4.21544330     0.73517733     4.50200222    -0.35869602     1.16620140     0.65510550
O       0.94739562     4.23630328     4.32033985     0.35869602    -1.16620140    -0.65510550
O       0.18759266     3.02393638     2.38313466     0.51181838    -0.12989244     0.21164198
O       4.97524636     1.94754424     6.43920737    -0.51181838     0.12989244    -0.21164198
O       2.76900387     1.94749797     2.02806441     0.51223927     0.13001739    -0.20984246
O       2.39383510     3.02398265     6.79427752    -0.51223927    -0.13001739     0.20984246
O       0.18757982     0.53819599     2.02803620     0.51182558    -0.13028402    -0.20985532
O       4.97525915     4.43328462     6.79430567    -0.51182558     0.13028402     0.20985532
O       2.39382230     0.53824226     6.43923552    -0.51147977    -0.12967055    -0.21140569
O       2.76901672     4.43323830     2.38310650     0.51147977     0.12967055     0.21140569
