# total energy = -4987.95148964 eV

CRYSTAL
PRIMVEC
        4.16444729     0.00000000     0.00000000
       -0.00000927     4.16444729     0.00000000
       -2.08225631    -2.08226094     5.31476093
PRIMCOORD
6 1
Ti     -0.00018339     3.12349320     1.32869009    -0.00189722     0.00189722     0.00000000
Ti      2.08236499    -1.04130697     3.98607050     0.00189722    -0.00189722     0.00000000
O       0.00004160     1.04110475     0.86573107    -0.00038541    -0.00176326    -0.98632825
O       2.08213988     1.04108137     4.44902957     0.00038541     0.00176326     0.98632825
O      -0.00002352    -1.04108667     3.52311148    -0.00176326    -0.00038541    -0.98632825
O       2.08220495     3.12327273     1.79164917     0.00176326     0.00038541     0.98632825
