# total energy = -39040.38960529 eV

CRYSTAL
PRIMVEC
        7.60629642    -0.00000847    -0.00005503
       -0.00000847     7.60629642    -0.00005503
       -3.80314186    -3.80314186     9.70738094
PRIMCOORD
46 1
Ti      1.91796956     4.73930701     6.07125332     0.00295831    -0.00122282     0.00332238
Ti      3.80315247     6.63988708     1.20697834    -0.00013935     0.01900174     0.00416005
Ti      1.81889365     0.95900037     6.01472348    -0.00202114    -0.01328284     0.01325764
Ti      3.80297143     2.86837199     1.19506499     0.00024194     0.00488047    -0.02369890
Ti     -1.91830531     4.73925262     6.07129273    -0.00281767    -0.00122822     0.00354324
Ti      0.00002465     6.67453322     1.37922178    -0.00008279     0.02096915    -0.00730811
Ti     -1.81883364     0.95894681     6.01485471     0.00166248    -0.01337540     0.01305838
Ti     -0.00016909     2.78571868     1.16367007     0.00030699     0.02415115     0.02026364
Ti      3.80318060     0.91858512     8.63134271     0.00003625     0.04058282     0.00201832
Ti      5.71242338     2.85859447     3.60792594    -0.01245263     0.00096416     0.00658280
Ti      3.80321355    -2.80669867     8.48531144    -0.00008048    -0.03551158     0.01523431
Ti      5.67220525    -0.95806633     3.66687052    -0.00352036     0.00940690    -0.00529365
Ti      0.00019460     0.95715827     8.42918979    -0.00010876    -0.02164227     0.03973333
Ti      1.89415303     2.85865818     3.60789488     0.01232407     0.00091814     0.00668976
Ti      0.00006621    -2.87509665     8.49495918     0.00009590    -0.04238748    -0.00281999
Ti      1.93415897    -0.95802604     3.66685158     0.00368645     0.00946243    -0.00518797
O       2.00646876     2.83138558     5.64259329    -0.01196335     0.00171775     0.03276358
O       3.80316333     4.75127320     0.75360328     0.00001517     0.01542714     0.03051515
O       2.04858127    -0.92450076     5.70127739    -0.00201755    -0.00645733     0.00724846
O       3.80314707     0.95585674     0.76056520     0.00001620    -0.01414699    -0.00295806
O      -2.00651721     2.83133554     5.64263997     0.01180394     0.00182754     0.03265688
O       0.00006578     4.84495152     0.80598719    -0.00002083    -0.04066253     0.01890533
O      -2.04861513    -0.92451081     5.70135123     0.00185068    -0.00652495     0.00712530
O       0.00012363     0.86679977     0.78410334    -0.00006582     0.00947220    -0.02270156
O       5.72795959     4.75167684     4.08909527     0.01930385    -0.00047823    -0.00027794
O       3.80306344    -0.95114661     8.90694191     0.00007790    -0.00027768     0.02357163
O       5.66499104     0.95598635     4.04723965    -0.01705182    -0.00257368     0.00033553
O      -0.00000558     2.83773468     8.89831927    -0.00007045    -0.00649564    -0.02865804
O       1.87825234     4.75171492     4.08908181    -0.01922003    -0.00051833    -0.00024117
O      -0.00003877    -0.92826085     8.83641306    -0.00001106     0.02417918    -0.02119515
O       1.94138431     0.95602739     4.04720973     0.01705593    -0.00261944     0.00053787
O       2.03426171     1.10690582     8.02328894     0.00701500     0.02086631    -0.03652922
O       3.80317061     2.88490061     3.16389760    -0.00006711     0.02399740    -0.02007415
O       1.91962857    -2.97202788     8.09319143    -0.00065563     0.02228684     0.02945791
O       3.80317194    -0.98221352     3.23277462    -0.00000797    -0.02243083    -0.03176676
O      -2.03436176     1.10695049     8.02317380    -0.00690161     0.02084086    -0.03636210
O       0.00000666     2.82974251     3.22626393     0.00005785    -0.01199163    -0.01064848
O      -1.91965398    -2.97202969     8.09320665     0.00062066     0.02230124     0.02950522
O       0.00000387    -0.92570582     3.32705779     0.00001723    -0.00577161    -0.02517702
O       3.80309085     4.71335888     6.49723834    -0.00002468    -0.00306887    -0.00305653
O       5.68863590     6.65872744     1.67623978     0.00232479    -0.00885565    -0.01491420
O       5.72117955     2.85227569     1.59740466    -0.01457225    -0.00134160    -0.01819210
O      -0.00004144     4.78127486     6.47473168     0.00013704    -0.00506970     0.02311525
O       1.91769571     6.65871823     1.67625248    -0.00231965    -0.00883380    -0.01492629
O       0.00002239     0.91274145     6.45201155    -0.00006325    -0.01518597    -0.01340445
O       1.88511764     2.85233507     1.59743973     0.01464809    -0.00129841    -0.01821010
