# total energy = -4988.26120091 eV

CRYSTAL
PRIMVEC
        4.11893502     0.00000000     0.00000000
        0.61437530     4.07285755     0.00000000
       -2.36669227    -2.03646071     5.27160886
PRIMCOORD
6 1
Ti      0.46063169     3.05479884     1.31790193     0.00000257    -0.00000257     0.00000000
Ti      1.90598678    -1.01840163     3.95370636    -0.00000257     0.00000257     0.00000000
O       0.15363715     1.01820830     0.85870187    -0.00063866    -0.00153546    -1.00997649
O       2.21298114     1.01818876     4.41290642     0.00063866     0.00153546     1.00997649
O      -0.15361195    -1.01818661     3.49450630    -0.00153546    -0.00063866    -1.00997649
O       2.52023017     3.05458367     1.77710199     0.00153546     0.00063866     1.00997649
