# total energy = -19517.80912526 eV

CRYSTAL
PRIMVEC
        5.17600016     0.00000000     0.00000000
        0.00000000     5.50899976     0.00000000
        0.00000000     0.00000000     9.26300011
PRIMCOORD
23 1
Ti      1.83122602     3.12114701     3.41301599    -0.11054848     0.29576053     2.33398635
Ti      3.32365102     2.28502002     5.88359799     1.08747291     0.13342436    -2.48221539
Ti      4.36304002     2.05546599     1.46421498     2.05879671     0.07429771    -2.05897051
Ti      0.84805697     3.48042200     7.69283500    -1.42359927    -0.34365686     2.58829889
Ti      2.06127498     0.25272902     1.41812200    -0.17656852    -0.87664572    -1.40027369
Ti      3.18661697     5.27473601     7.89482698    -0.29429269    -0.56461369     1.82423231
Ti      0.73687101     0.59449900     5.90725099    -1.04118018    -0.84656868    -2.29396172
Ti      4.52938398     4.89731102     3.36345499     0.82636649     0.05638406     2.91397525
O       1.58774400     1.80505202     4.79709300     1.13049520     0.30379755    -0.75126480
O       3.53526001     3.46128299     4.49640698     0.01246960     0.25851141    -0.12144096
O       0.09671699     2.68557301     9.23385699    -0.05626450     0.28027375    -0.04217973
O       3.46339800     0.83391000     0.17197800     0.14393067     0.33414532     0.60021371
O       1.78431298     4.70802898     9.14308399    -0.21210478    -0.60388371    -0.65147587
O       4.25836199     0.72149497     4.82576002     0.02495822    -0.36873798    -0.26223282
O       0.96493699     4.47652700     4.47537001    -0.33104560     1.52483598     0.67546813
O       0.16640799     3.31100099     2.53098599     0.05016687    -0.17184077    -0.62131142
O       5.10037300     2.21414000     6.65988302    -0.84410377    -0.24741941     0.21662426
O       2.73437098     1.78924999     2.34408599    -0.55653785     0.46530402    -0.00048954
O       2.51316701     3.70222501     6.92309002     0.85569842    -0.39110659    -0.00192627
O       0.26705703     0.62886699     2.00774299     0.00810541    -0.53649533     0.48317320
O       4.90335402     4.86267399     7.21703702     0.34636629     0.54247443     0.04959506
O       2.35526401     1.06132398     7.02053002    -1.03209544     0.29343060    -0.14405973
O       2.91967801     4.45675398     2.40509700    -0.46648545     0.38832954    -0.85376495
