# total energy = -19959.65017685 eV

CRYSTAL
PRIMVEC
        5.93400000     0.00000000     0.00000000
        0.00000000     9.29699974     0.00000000
        0.00000000     0.00000000     4.64899994
PRIMCOORD
24 1
Ti      4.40087302     6.81247599     2.12969400     0.80128845     1.90908260    -0.05966453
Ti      4.47554601     2.46241198     2.25588002    -0.42035778    -1.63949076    -0.53243735
Ti      1.49637203     6.98631199     2.37940000    -0.69647020     1.20397941    -0.40072175
Ti      1.45374802     2.28892100     2.47960902     0.65177104    -1.28766165    -0.42276562
Ti      3.00592803     4.66477800     4.59955399    -2.13458103    -0.21507080     1.11609727
Ti      2.97100100     0.15566701     0.13650101     0.94366643    -0.50283880    -1.58154708
Ti      5.92741799     4.60539098     4.48803200     2.10066817    -0.16055748     0.45216105
Ti      0.00753501     9.29585402     0.12758098    -0.86019965    -1.00495050    -1.43757476
O       4.60530599     5.50756098     0.74159302    -1.66680103     0.24785264     1.14196412
O       4.49404700     0.77458002     1.03965099    -0.21408041     2.23215186     1.49849579
O       1.51675202     5.59985299     0.89544300     0.59897418    -0.86162095    -0.94065490
O       1.48560898     0.74058197     1.16757002    -0.93695328     0.62437618    -0.34607756
O       4.37649001     8.62175402     3.85693500     0.74516279    -1.69795819    -1.25219687
O       4.46452801     3.67555098     3.70277302    -0.11473269     1.03720757     0.49502290
O       1.44084498     8.50011299     3.66128399     0.07571902    -0.85900074     0.01036052
O       1.58002500     3.72843701     3.74882499    -0.61415167     0.78758961     0.27904501
O       3.03936901     5.91440002     3.12738299    -0.45260354     0.66397273     0.06517518
O       2.95034399     1.51447899     3.36072200    -0.18889902     0.13469912    -0.08174877
O       5.92400300     6.10262397     3.18103003     0.01957742    -0.82484054     0.48229568
O       5.81988399     1.51594698     3.26692502     0.37380203     0.04480072     0.43119241
O       3.00003802     7.89660502     1.35643698     0.06085109    -1.86238235     1.35788287
O       2.78476199     3.17603502     1.44007402     1.90371388     0.68881679    -0.85965020
O       5.88076302     7.65187901     1.28384799     0.62342976     1.11324154     0.43427157
O       0.02290898     3.20696601     1.33430599    -0.59879395     0.22860252     0.15107499
