# total energy = -19516.68360832 eV

CRYSTAL
PRIMVEC
        5.17600016     0.00000000     0.00000000
        0.00000000     5.50899976     0.00000000
        0.00000000     0.00000000     9.26300011
PRIMCOORD
23 1
Ti      1.86232900     3.23714298     3.40478898    -1.86392733     0.74588065     1.35622400
Ti      3.40596100     2.23906700     5.77448301    -0.89014247     0.80359705    -0.20321441
Ti      4.33912602     1.93628099     1.56959301     2.07963679     1.06826959    -1.54488905
Ti      1.02875301     3.35272100     7.89557000    -0.87186886    -0.00379032     0.72610988
Ti      1.81421901     0.40173200     1.22418801     2.03119436     1.30478366    -0.33621351
Ti      3.30241699     5.30110301     7.84679002     0.98376743    -0.61710510     1.66785570
Ti      0.64252400     0.58593802     5.76852601     0.17425504    -1.01593117    -1.78014404
Ti      4.29832101     4.86529300     3.43543299     1.84412725    -0.05427781     0.98653676
O       1.71625502     1.97255101     4.78562197    -0.38033649     0.03128905     0.33827297
O       3.39780902     3.80817402     4.60717198     0.17520609    -1.27237798     0.35812935
O       0.61231502     2.54270701     0.29392399    -0.01164504    -0.46863566    -1.14051325
O       3.53662698     1.02834200     0.09927201    -0.88478120    -0.62393189    -0.34304082
O       1.55424798     4.84217599     9.13642101     0.29041135    -0.50421331    -1.99974487
O       4.15192301     0.86402400     4.72290399     1.10588150    -0.45642009    -0.73982698
O       1.01893699     4.68391601     4.37342301    -1.36275743     1.12562373     0.57232932
O       5.14410898     3.11371101     2.83857699     0.31100770     0.96882366    -0.64225255
O       5.13215200     1.90388100     6.85676601    -0.78302564     1.65069255     0.60879015
O       2.70232501     1.86501097     2.39008498    -0.25842476     0.14488403    -0.43310429
O       2.94007102     3.62156501     7.14985702    -2.05772301    -2.34224602     1.18389086
O       0.27247098     0.62359300     2.16752499    -1.46674625    -1.38291129     0.68688666
O       5.05159800     4.78977702     7.10387998     0.97278238    -0.34444002     0.41160394
O       2.37506101     0.51827699     6.59298300     0.34308145     1.66094097     0.00016584
O       2.77839499     4.66621498     2.22347099     0.52002689    -0.41850427     0.26614810
