# total energy = -19074.31963221 eV

CRYSTAL
PRIMVEC
        7.60600008     0.00000000     0.00000000
        0.00000000     7.60600008     0.00000000
       -1.89786986    -1.89786986     4.85670466
PRIMCOORD
22 1
Ti      3.83065601     6.54568001     1.18942800     2.10976319     0.20634319    -0.70254777
Ti      3.74859797     2.83645197     1.07834401    -0.54921612    -0.14238492     1.25471732
Ti      0.24614098     6.71094698     1.03993903    -1.16495673    -0.52253526     0.46036339
Ti     -0.14475300     2.78876400     1.23840801     0.47127876     1.00491322     0.85616430
Ti      5.63564124     2.77842520     3.58008883    -1.33070862     0.57231209     0.79047825
Ti      6.10257021    -0.64394077     3.68147983     0.28328991    -2.62475972    -1.54444502
Ti      1.81993624     2.79438423     3.60898080     1.00796049    -0.94711891    -1.22204759
Ti      1.64074121    -1.22476376     3.80624480    -0.79971931     3.51559484    -0.46982891
O       3.76306901     4.66175100     0.65837302     0.09540956     2.45874892     1.28658307
O       4.06836799     1.03329198     0.71773300    -0.54362551    -1.92353143     0.58531057
O       7.34780201     4.87662400     0.61039701     1.12999486     1.28280278     0.90071974
O      -0.30066798     1.00880298     1.09392998     1.26169221    -0.82409389    -0.69588038
O      -1.43540678     5.13475122     4.06976179    -0.25755547    -0.67700977    -0.14031672
O       5.32741624     0.97665525     4.16054680     0.59386926     0.00308250    -0.96614688
O       2.17140820     4.71886224     4.08743980    -0.57885864    -1.03199080     0.27518527
O       1.67951720     0.98683223     4.00396383     0.12038835    -1.54590232    -0.78047357
O       3.66311923     2.83238324     3.18659882     1.26843879     0.04609116    -0.18523725
O      -0.12662577     2.82629923     3.28386483     0.65642191     0.24869570    -0.40652498
O       5.63885203     6.61346200     1.79404100     0.16935709     0.44717131     1.42140920
O       5.63825998     2.95138700     1.66299999    -0.42167342     0.43683650    -0.13750085
O       2.15886400     6.59530001     1.99009599    -1.24338081     0.15664837    -0.67686141
O       1.92417902     2.88444798     1.53028700    -2.27817051    -0.13991357     0.09688049
