# total energy = -39034.92847579 eV

CRYSTAL
PRIMVEC
        7.60600008     0.00000000     0.00000000
        0.00000000     7.60600008     0.00000000
       -3.79573973    -3.79573973     9.71340985
PRIMCOORD
46 1
Ti      1.76821546     4.62976546     6.10191562    -0.70778023     2.51404772    -0.26527958
Ti      3.84108900     6.56591998     1.13810299    -0.25682785     1.86259550     1.22301509
Ti      1.93108547     0.63278243     6.21591162    -0.15286294     0.59595442    -3.29984938
Ti      3.87589601     2.74165902     1.18221500     1.39525001    -1.51663775     0.87616620
Ti     -2.11893054     4.78177046     5.92094261     1.01629986    -1.52657199     2.17970262
Ti     -0.06688599     6.67006301     1.13176498     0.35687362    -0.51021633     1.43418167
Ti     -1.83957655     0.91967143     6.16157162    -0.58676607     1.51770348    -0.08843595
Ti      0.06139297     2.84098200     1.20512102    -0.24067669     0.65738736     0.49090759
Ti      3.82022947     1.04743043     8.44972262     1.04318590     0.09482566    -0.28584610
Ti      5.81266500     2.86412498     3.65261501    -0.43853086    -1.22562091     0.08155542
Ti      3.72758144    -2.73914755     8.50983160     0.11284756     0.16036208    -0.29907700
Ti      5.54792001    -0.83629701     3.70059303     2.67210480     0.54594182    -0.44872555
Ti      0.04063044     1.01233047     8.47415262    -0.53791586    -0.10365792    -0.43008453
Ti      2.08352101     2.92216599     3.53402602    -0.23387046     0.18185111    -0.02892621
Ti     -0.11228353    -2.97558855     8.49459960    -0.15255389     0.65996669     0.57129188
Ti      1.87655402    -0.76842702     3.56360301    -1.94329603    -0.58523575     0.31753624
O       1.69070343    -1.04949353     5.69857762     0.46924656    -0.66148878    -1.31955851
O       3.95971001     0.89011598     0.84659898    -0.78739009     0.06669444    -1.54044052
O      -2.12150456     2.86159747     5.87593063     0.76140986     0.63166037    -1.76946368
O       0.15811298     4.82579198     0.82923398    -0.18910085    -1.34079531    -0.00737393
O      -1.78878754    -0.89992052     5.80556461    -1.08026842    -1.37394096    -1.37390188
O       0.05372297     0.95503502     0.73995299     0.22360430     0.89127478    -0.90412825
O       3.34959843     2.77700944     8.90646863     0.63932021     1.89776563    -0.04187069
O       5.70936902     4.71664700     4.06530701    -0.18498888     1.16742936    -0.34343626
O       4.00041343    -0.75563654     8.78857265    -0.20205099    -3.16572336     1.35691305
O      -1.63557702     0.99118201     4.18772302    -1.17072629    -0.50377597    -0.13968474
O       0.12117042     2.82706643     8.87696361     0.30701143    -0.01146044    -0.04408415
O       1.85807298     4.76844599     3.84286000     0.41992327    -0.42964744     1.47875613
O      -0.08405256    -0.65958256     9.14785664    -0.24773591    -1.34303912    -0.89106318
O       2.00506398     1.15672998     4.10753700    -0.41094523    -2.06292796     1.22444463
O       2.00293743     0.68374543     7.95686762    -1.30008008     0.45052660     3.40689936
O       3.93334502     2.63611399     3.24106302     0.61273988     1.23194428     0.34556128
O       1.82582947    -2.64818357     8.15414564     0.01853303    -0.59165991    -0.60881483
O       3.77461302    -0.95365302     3.20596502     0.57807908    -0.01375721     0.45226261
O      -1.83269153     1.19600345     8.10779463    -1.03576955    -0.05688696     0.39183910
O       0.01770601     2.75007199     3.21216200     0.87531028     0.72043237    -0.90999551
O      -1.97123055    -3.10211557     8.05978164    -0.55617739     0.83646990     0.75089661
O      -0.06267702    -0.79008402     3.16576702     0.42953714    -0.40629590     0.08947262
O       3.67331246     4.91491045     6.47169960    -0.02495128    -0.55940026    -0.14860159
O       5.68652301     6.71641598     1.60720100    -0.78664267    -0.89138586     0.64543661
O       3.79166745     0.92161044     6.42476862     0.54569654     0.03224447     0.17726092
O       5.79045898     2.66769100     1.56532398     0.77667913     1.23760662     0.34584384
O      -0.11356054     4.72756843     6.50070560     1.06518735    -0.69922488    -0.10575028
O       1.88643498     6.73604798     1.65206100     0.62174723    -0.17660631    -0.68497273
O      -0.01887655     0.81880443     6.59793663     1.32154006     0.87200282    -1.24279845
O       2.12977698     2.63434299     1.66263401    -3.03421833     0.92926876    -0.61777950
