# total energy = -4983.79942435 eV

CRYSTAL
PRIMVEC
        3.45633676     0.00000000     0.00000000
        0.00000000     5.41556153     0.00000000
        0.00000000    -0.00007028     5.41556153
PRIMCOORD
6 1
Ti      1.72816832     2.70774557     2.70778071     0.00000000     0.00000000     0.00000000
Ti      0.00000000     0.00000000     0.00000000     0.00000000     0.00000000     0.00000000
O       1.72816832     1.05539947     1.05541316     0.00000000    -0.90078016    -0.90078016
O       1.72816832     4.36009166     4.36014825    -0.00000000     0.90078016     0.90078016
O       0.00000000     1.65231761     3.76319497     0.00000000     0.90096219    -0.90096219
O       0.00000000     3.76317353     1.65236644     0.00000000    -0.90096219     0.90096219
