# total energy = -19517.64228621 eV

CRYSTAL
PRIMVEC
        5.17600016     0.00000000     0.00000000
        0.00000000     5.50899976     0.00000000
        0.00000000     0.00000000     9.26300011
PRIMCOORD
23 1
Ti      1.80764800     3.11802200     3.47239999     0.63557642     0.45125011     1.68739378
Ti      3.39968199     2.20270898     5.88894098     0.56180708     0.07990092    -2.39097693
Ti      4.37913701     2.15845802     1.39407598     0.55376980    -1.54619439    -0.55907682
Ti      0.90906503     3.41442598     7.76811898    -2.09859431     0.48720829     0.06707008
Ti      1.99110799     0.31923602     1.31373301    -0.43654494    -0.02569870    -0.25965041
Ti      3.22193098     5.12826700     7.93884400    -0.10605136     2.28080923     0.03718588
Ti      0.74949401     0.53837499     5.93122198    -0.76113218    -0.20869524    -2.70145215
Ti      4.50028198     4.93350500     3.31513100     0.48008916     0.41884083     3.10214176
O       1.61524000     1.86254898     4.83212200     0.47362849     1.11296335    -0.89774548
O       3.50386202     3.54240300     4.48873999    -0.23600782    -0.35230914     0.34295804
O       0.14943701     2.69117001     9.23515501     0.00168304     0.19179742     0.49403663
O       3.42848299     0.87940300     0.12913401     0.46634995    -0.44187432    -0.03676705
O       1.77434000     4.68521498     9.11377598    -0.70622548    -0.60023840     0.01378549
O       4.30886502     0.79567398     4.72280800    -0.79544691     0.23923327     0.18885685
O       0.94105501     4.72811200     4.36110498     0.11726986    -0.65522069     0.96850227
O       0.14351800     3.28453302     2.53783799    -0.11433520     1.11535191    -0.04817915
O       4.98320898     1.99522001     6.89799802     0.38371543     0.76222336    -0.58553682
O       2.64634399     1.89601102     2.12097602    -0.39131948     2.02355330     1.16245993
O       2.64306198     3.48853800     7.20742002     1.27994911    -1.22955444    -1.01148521
O       0.24892799     0.75000202     2.11457901    -0.31926325    -0.93997895    -0.74612079
O       4.98969701     4.90819398     7.10190901    -0.21998650    -1.76650639     1.20491940
O       2.33724499     0.94784599     6.91347502     0.49919298    -1.11347577     0.85385391
O       2.70307301     4.70702698     2.51940400     0.73187584    -0.28338504    -0.88617346
