# total energy = -39033.85529465 eV

CRYSTAL
PRIMVEC
        7.60600008     0.00000000     0.00000000
        0.00000000     7.60600008     0.00000000
       -3.79573973    -3.79573973     9.71340985
PRIMCOORD
46 1
Ti      1.89772646     4.79193247     6.19519861     1.05754372     0.30030393    -1.81926082
Ti      3.76448800     6.84570298     1.07528500    -0.20555926    -0.03643023     0.75868860
Ti      2.08747645     0.68513145     6.02672360    -1.58093361    -1.06311838     0.44117781
Ti      3.79323598     2.92946101     1.27623403    -1.13862940    -0.72559515     0.60942598
Ti     -1.87106254     4.83568447     5.98455860    -0.22521741    -0.62735943     0.63239185
Ti     -0.03983498     6.85927902     1.10219800    -0.22361381    -0.79556415    -0.02792142
Ti     -1.93428853     0.95272247     6.16577461     1.33454213     0.30602027    -0.86716168
Ti     -0.28180498     3.04205803     1.20632500     1.29185409    -1.05054697     1.10492428
Ti      3.83292046     0.87940845     8.55825163     0.11172861     2.41123980    -1.58813219
Ti      5.71422999     2.86055700     3.84573899    -0.99986202    -0.05783519    -2.09724860
Ti      4.08880545    -2.70121253     8.46961064    -2.45979382    -1.78247218    -0.92647551
Ti      5.66659600    -0.88039399     3.68363501     1.57026713     0.05683194     0.50868112
Ti      0.04488746     0.90575444     8.33391165     0.30448429     1.79416479    -0.49811260
Ti      1.81826298     2.67168301     3.43357997    -0.27071309     1.54560355     0.05235256
Ti      0.03583747    -2.76987454     8.41057663     0.91464869    -0.44039105     1.22427930
Ti      1.91080402    -1.14512697     3.61759798    -1.51467137    -1.19236033     0.57809733
O       1.62790644    -1.08159353     5.61123564     1.09936144     0.31817439     0.16053666
O       3.63236800     1.05934898     0.84768502    -0.18346808    -0.42338937    -1.04925113
O      -2.06153058     2.86035745     5.61860660     0.03250338    -1.12225018     2.88526527
O       0.06227400     4.86033699     0.65253799    -1.54701252    -0.72057507     2.47450311
O      -1.80616255    -0.95127353     5.71257160     0.29704377     0.78733404     0.41490241
O       7.35262499     1.08195999     0.62575199     0.39092584    -0.71275814     0.75558091
O       3.87339644     2.88146146     8.83201662    -0.44971208     1.22260037     1.12339149
O       5.77539801     4.75401099     4.19446902    -0.38018788     0.96171892    -2.08104473
O      -3.46181058    -0.85760555     8.93698760    -0.30327587    -1.57901042    -0.09180770
O       5.95620100     1.06100298     4.14791402    -0.93212089    -2.79476086     0.17967441
O       0.20327947     2.81169045     9.00059661    -0.16387729    -0.17353050    -0.49162133
O       1.71257099     4.46120801     4.14907699     1.05365158     0.22379893     0.05613980
O      -0.17981956    -0.72228054     9.01572463     0.22929904    -2.01055457    -0.45087936
O       1.85892898     0.93192501     4.11523801     0.26100255     0.04701444    -0.17790061
O       1.99796845     0.80489045     8.04975961    -0.13176343     0.28501589    -0.09053706
O       3.78292999     2.85658902     3.32519500    -1.61366402     0.16896551    -0.75980446
O       1.98424345    -2.79506354     8.06412365    -0.87326908     0.54052913     0.71509476
O       3.71454600    -1.13163401     3.63315499     0.41304273     0.41915348    -1.17021387
O      -1.92218455     1.14141744     8.15328065     1.72289635    -0.02444272    -1.60012793
O      -0.12892001     2.94988302     3.26610702     0.05156838     0.00037281    -1.06133172
O      -1.81383255    -3.10363854     7.96029261     1.05615429     0.86909155     0.94071326
O      -0.09294702    -1.11187300     3.36255301     0.33050309     0.67198429    -1.43826124
O       3.85223644     4.66013346     6.36608360    -0.15871246     0.61198217     0.97765411
O       5.57191603    -0.68905800     1.78743401    -0.05295523    -0.68561782    -0.97837993
O       3.90938843     0.45728445     6.46131661    -0.60524382     1.13397339    -0.19502879
O       5.50603102     2.71219697     1.72475699     1.64707758     0.90215081    -1.16241751
O       0.11161745     4.49931443     6.31787963    -1.31701826    -0.28773098     1.81521622
O       1.82390999     6.44864102     1.56760701     1.00883235     1.14088708     0.65714850
O       0.17988846     0.83123247     6.36178663    -1.50062029     1.15538811     1.25276225
O       1.53790101     2.67041102     1.59732899     2.65296370     0.43199434     0.30431871
