# total energy = -4975.33949804 eV

CRYSTAL
PRIMVEC
        3.85685647     0.00000000     0.00000000
        0.00000000     6.04311588     0.00000000
        0.00000000    -0.00007842     6.04311587
PRIMCOORD
6 1
Ti      1.92842817     3.02151866     3.02155787     0.00000000     0.00000000     0.00000000
Ti      0.00000000     0.00000000     0.00000000     0.00000000     0.00000000     0.00000000
O       1.92842817     1.17769898     1.17771426     0.00000000    -0.95088378    -0.95088378
O       1.92842817     4.86533834     4.86540148    -0.00000000     0.95088378     0.95088378
O       0.00000000     1.84378789     4.19927336    -0.00000000     0.95167953    -0.95167953
O       0.00000000     4.19924943     1.84384238    -0.00000000    -0.95167953     0.95167953
