# total energy = -4980.20796170 eV

CRYSTAL
PRIMVEC
        3.95772793     0.00000000     0.00000000
        0.00000000     2.35216671     0.00000000
        0.00000000    -0.00009390     5.36259151
PRIMCOORD
6 1
Ti      1.97886397     1.17603626     2.68129551     0.00000000     0.00000000     0.00000000
Ti      0.00000000     0.00000000     0.00000000     0.00000000     0.00000000     0.00000000
O       1.97886397     0.45838430     1.04509002     0.00000000    -1.47426261    -1.10207781
O       1.97886397     1.89368823     4.31750100     0.00000000     1.47426261     1.10207781
O       0.00000000     0.71761482     3.72638671    -0.00000000     1.47424565    -1.10306897
O       0.00000000     1.63445770     1.63620431    -0.00000000    -1.47424565     1.10306897
