# total energy = -19915.13996209 eV

CRYSTAL
PRIMVEC
        7.39097479     0.00000000     0.00000000
        0.00002420     3.37124229     0.00000000
        0.00000000     0.00000000    11.24848596
PRIMCOORD
24 1
Ti      2.67888710     1.99779507     4.17310807    -0.41117560     0.31637925     1.29479081
Ti      4.71211157     1.37344727     7.07537806     0.41117560    -0.31637925    -1.29479081
Ti      6.37424800     1.37344842     1.45109001    -0.40937942    -0.31630957    -1.29404673
Ti      1.01675068     1.99779403     9.79739623     0.40937942     0.31630957     1.29404673
Ti      2.67887516     0.31217398     1.45113513    -0.41117560     0.31637925    -1.29479081
Ti      4.71212351     3.05906842     9.79735110     0.41117560    -0.31637925     1.29479081
Ti      1.01673874     0.31217273     7.07533294     0.40937942     0.31630957    -1.29404673
Ti      6.37425994     3.05906967     4.17315319    -0.40937942    -0.31630957     1.29404673
O       2.33929862     1.18707171     5.74001633     4.35640656    -0.28501640     0.58738596
O       5.05170005     2.18417058     5.50846980    -4.35640656     0.28501640    -0.58738596
O       1.35624886     1.18708531     0.11580946    -4.35715116    -0.28514599     0.58645882
O       6.03474987     2.18415704    11.13267635     4.35715116     0.28514599    -0.58645882
O       5.05168816     0.49854944     0.11577297    -4.35640656     0.28501640     0.58738596
O       2.33931051     2.87269291    11.13271283     4.35640656    -0.28501640    -0.58738596
O       6.03473798     0.49853584     5.74005282     4.35715116     0.28514599     0.58645882
O       1.35626064     2.87270651     5.50843331    -4.35715116    -0.28514599    -0.58645882
O       0.26854582     2.05058065     3.03849671    -0.01090277    -0.15834530     0.46092621
O       7.12245285     1.32066164     8.20998942     0.01090277     0.15834530    -0.46092621
O       3.96404262     1.32063023     2.58578211    -0.00914285     0.15836304    -0.46057474
O       3.42695606     2.05061212     8.66270385     0.00914285    -0.15836304     0.46057474
O       0.26853393     0.36495951     2.58574622    -0.01090277    -0.15834530    -0.46092621
O       7.12246474     3.00628284     8.66273975     0.01090277     0.15834530     0.46092621
O       3.42694417     0.36499092     8.21002526     0.00914285    -0.15836304    -0.46057474
O       3.96405450     3.00625143     3.03846082    -0.00914285     0.15836304     0.46057474
