# total energy = -19917.07090248 eV

CRYSTAL
PRIMVEC
        6.38669195     0.00000000     0.00000000
        2.61440362     6.27448420     0.00000000
        0.00000000     0.00000000    11.67581823
PRIMCOORD
24 1
Ti      3.86416187     3.71825364     4.33164529    -0.05165708    -2.31027846     0.61060663
Ti      5.13693381     2.55623073     7.34417307     0.05165708     2.31027846    -0.61060663
Ti      6.57322068     2.55623287     1.50621722    -0.46391486    -1.10261697     0.23234451
Ti      2.42787505     3.71825176    10.16960121     0.46391486     1.10261697    -0.23234451
Ti      2.55696018     0.58101152     1.50626402    -0.05165708    -2.31027846    -0.61060663
Ti      6.44413553     5.69347305    10.16955440     0.05165708     2.31027846     0.61060663
Ti      1.12067321     0.58100921     7.34412620     0.46391486     1.10261697     0.23234451
Ti      7.88042250     5.69347536     4.33169209    -0.46391486    -1.10261697    -0.23234451
O       2.94200427     2.20935262     5.95808069     1.83137921     2.11490643    -0.83552399
O       6.05909134     4.06513177     5.71773767    -1.83137921    -2.11490643     0.83552399
O       2.09254154     2.20937797     0.12020910    -0.18982410    -0.77095020     1.56385917
O       6.90855423     4.06510652    11.55560888     0.18982410     0.77095020    -1.56385917
O       4.75188963     0.92788952     0.12017119    -1.83137921    -2.11490643    -0.83552399
O       4.24920605     5.34659486    11.55564679     1.83137921     2.11490643     0.83552399
O       5.60135244     0.92786422     5.95811853     0.18982410     0.77095020     1.56385917
O       3.39974312     5.34662025     5.71769976    -0.18982410    -0.77095020    -1.56385917
O       1.82227180     3.81649716     3.15392981     0.62678453     2.66441360     2.53177136
O       7.17882381     2.45798723     8.52188855    -0.62678453    -2.66441360    -2.53177136
O       4.44955274     2.45792884     2.68401651     0.71876475     2.03736476     1.46548692
O       4.55154287     3.81655555     8.99180166    -0.71876475    -2.03736476    -1.46548692
O       0.51507008     0.67925484     2.68397918     0.62678453     2.66441360    -2.53177136
O       8.48602559     5.59522953     8.99183893    -0.62678453    -2.66441360     2.53177136
O       3.24434116     0.67931330     8.52192575    -0.71876475    -2.03736476     1.46548692
O       5.75675445     5.59517109     3.15389255     0.71876475     2.03736476    -1.46548692
