# total energy = -4988.68633476 eV

CRYSTAL
PRIMVEC
        2.92824403     0.00000000     0.00000000
        0.00000000     4.15115593     0.00000000
        0.00000000    -0.00005678     4.38058898
PRIMCOORD
6 1
Ti      1.46412202     2.07554942     2.19029449     0.00000000     0.00000000     0.00000000
Ti      0.00000000     0.00000000     0.00000000     0.00000000     0.00000000     0.00000000
O       1.46412202     0.80898802     0.85371226     0.00000000     0.37643844     0.25179620
O       1.46412202     3.34211077     3.52687666     0.00000000    -0.37643844    -0.25179620
O       0.00000000     1.26653840     3.04400764     0.00000000    -0.37655722     0.25184119
O       0.00000000     2.88456045     1.33658129     0.00000000     0.37655722    -0.25184119
