# total energy = -78964.88222561 eV

CRYSTAL
PRIMVEC
       10.35150501     0.00002646     0.00000000
        0.00002858    11.01713167     0.00000000
        0.00000000     0.00000000     9.26345890
PRIMCOORD
94 1
Ti      7.18874969     8.68658040     3.27798765    -0.00529030     0.01701557    -0.00623261
Ti      7.09559967     3.32489168     3.47809992     0.01282904     0.00764364     0.01180702
Ti      1.79581480     8.77095513     3.47060851     0.01998185    -0.00532424     0.01814505
Ti      1.83488053     3.39919729     3.48852213     0.03615332     0.01696080     0.00081941
Ti      8.37221085     7.68632297     5.74288036    -0.00488690     0.01055233    -0.00354838
Ti      8.53899884     2.19177105     5.83119716    -0.01590511     0.01834020     0.01801624
Ti      3.33631967     7.64084662     5.79196570    -0.02998576    -0.00387234     0.00512755
Ti      3.17354419     2.25636933     5.83730525     0.00110018     0.00640899    -0.01279484
Ti      9.74274679     7.68622357     1.11089487     0.00477274     0.01011061    -0.00328690
Ti      9.57679286     2.19194530     1.19964649     0.01524716     0.01863562     0.01828595
Ti      4.42760086     7.64046478     1.16046228     0.02921340    -0.00431971     0.00418781
Ti      4.58974530     2.25648168     1.20547182    -0.00077956     0.00587626    -0.01367339
Ti      5.96789894     8.77071998     8.10237151    -0.02025953    -0.00486093     0.01828029
Ti      5.92857073     3.39928474     8.12022920    -0.03555914     0.01681348     0.00074691
Ti      0.57500156     8.68662939     7.90966388     0.00523117     0.01753570    -0.00637428
Ti      0.66797051     3.32517980     8.11008500    -0.01348158     0.00770431     0.01155249
Ti      7.04297241     6.04436037     1.18450827    -0.00111560     0.01095445    -0.01221994
Ti      7.02216029     0.53658186     1.19833816    -0.00078650    -0.00714304    -0.01312317
Ti      1.89736784     6.04411317     1.22298272     0.00217927     0.04321820     0.00456937
Ti      1.91530347     0.85777408     1.34256396    -0.01417038     0.01160751    -0.01336023
Ti      8.47209460    10.49338092     8.06984305     0.02419666     0.00176892     0.00782258
Ti      8.49918282     4.96386062     8.04887162     0.02101286    -0.02826389    -0.01431051
Ti      3.49150556    10.40780182     7.93443297    -0.00542606    -0.01000288    -0.04822337
Ti      3.28847937     4.93949873     8.08438148     0.01181937     0.00319408     0.01586140
Ti      5.86622513     6.04392842     5.85453589    -0.00225846     0.04295107     0.00487867
Ti      5.84801816     0.85808485     5.97427537     0.01479208     0.01144758    -0.01308101
Ti      0.72084790     6.04451926     5.81625632     0.00108269     0.01072125    -0.01204691
Ti      0.74167327     0.53646020     5.83026981     0.00108501    -0.00698723    -0.01322807
Ti      9.64322402    10.49310054     3.43816267    -0.02368424     0.00177689     0.00803959
Ti      9.61563073     4.96417559     3.41743550    -0.02133425    -0.02912830    -0.01436579
Ti      4.27310945    10.40794521     3.30236373     0.00677872    -0.00976377    -0.04840386
Ti      4.47487659     4.93928244     3.45278759    -0.01136865     0.00320591     0.01513738
O       6.77095744     7.47021750     4.71875549    -0.04704529     0.01061892    -0.01807820
O       6.84603016     1.91908711     4.71659863    -0.00400347    -0.01612365     0.01305812
O       1.59841767     7.44198875     4.75801469    -0.00325348    -0.03461966    -0.02153043
O       1.67610229     1.87925063     4.68037464     0.00245823    -0.00496506     0.02047319
O       8.61749035     9.12778717     4.54913054     0.00854712     0.00102561    -0.02122061
O       8.72673405     3.58166865     4.53461114     0.02799752     0.01968797     0.02215546
O       3.48922935     9.10257467     4.54998962    -0.00387003    -0.02047370    -0.01553410
O       3.57129951     3.54853571     4.51376279     0.01542303    -0.02573598    -0.00703274
O       6.16525076     7.44187044     0.12634484     0.00399832    -0.03483538    -0.02194335
O       6.08730938     1.87927901     0.04875205    -0.00224714    -0.00516149     0.01994200
O       0.99259725     7.47014465     0.08688883     0.04661797     0.01074156    -0.01768020
O       0.91753291     1.91889900     0.08481253     0.00349233    -0.01572333     0.01315917
O       9.49768804     9.12778258     9.18071008    -0.00856255     0.00092765    -0.02062051
O       9.38833058     3.58154508     9.16632021    -0.02786126     0.02001425     0.02222205
O       4.27480335     9.10268987     9.18170734     0.00365405    -0.02036854    -0.01551841
O       4.19217991     3.54863544     9.14560541    -0.01571330    -0.02543799    -0.00714767
O       8.72578593     6.33425894     0.07499264    -0.01221146     0.01241895     0.00753951
O       8.69485131     0.83605413     0.10120454    -0.02373823     0.00808329     0.00266186
O       3.57900801     6.34194916     0.08860147    -0.03430727     0.02862667     0.00599427
O       3.26645160     0.60483710     0.06716399    -0.06007333    -0.01212584    -0.01090971
O       6.86762297    10.15429272     9.19169467    -0.02875857     0.00826430    -0.00549908
O       6.80090543     4.67327000     9.19990106     0.01660882     0.02056806     0.01350652
O       1.64801683     4.69584209     9.16227721    -0.00765495    -0.02863721    -0.00675429
O       9.38917772     6.33436602     4.70679342     0.01295374     0.01232356     0.00731428
O       9.42033142     0.83607387     4.73289167     0.02370738     0.00784315     0.00273360
O       4.18458164     6.34182640     4.72039784     0.03439315     0.02871975     0.00593874
O       4.49721393     0.60480061     4.69889270     0.06049551    -0.01187130    -0.01064437
O       6.11553285     4.69577233     4.53054333     0.00706874    -0.02820398    -0.00700035
O       0.89619337    10.15427536     4.55997099     0.02858451     0.00806427    -0.00556464
O       0.96259668     4.67336388     4.56815817    -0.01660650     0.02027753     0.01284626
O       5.41973921     8.99815720     2.69405626    -0.03008166    -0.03011020    -0.04541778
O       5.39319992     3.37901961     2.45094795    -0.03084785     0.01469875    -0.02064854
O       0.15534463     8.85583896     2.50036512     0.00684916    -0.01831063     0.01234901
O       0.19742187     3.35325911     2.50203129     0.03255223     0.00641850    -0.01657128
O      10.10439062     7.60102074     6.75116294     0.01071919    -0.02932627     0.01238244
O      10.19307912     2.14634460     6.77495032     0.00849030    -0.01622727     0.00807969
O       4.96386893     7.65899605     6.78250427     0.00091428     0.02196623     0.00484422
O       4.93983020     2.19736750     6.77416572    -0.00764801     0.02701459     0.02561642
O       8.01077994     7.60092736     2.11946395    -0.01048779    -0.02898946     0.01273956
O       7.92215553     2.14644821     2.14314807    -0.00835017    -0.01656614     0.00821905
O       2.79980375     7.65902236     2.15071995    -0.00086081     0.02178394     0.00481594
O       2.82350451     2.19720795     2.14234184     0.00743923     0.02752444     0.02618927
O       7.60839279     8.85586443     7.13215549    -0.00665196    -0.01822347     0.01245263
O       7.56605662     3.35329692     7.13382451    -0.03243165     0.00574385    -0.01716392
O       2.34412734     8.99843330     7.32592705     0.02971245    -0.03050538    -0.04522444
O       2.37032289     3.37912526     7.08269462     0.03058920     0.01415958    -0.02155845
O       5.39553060     6.17037169     2.16930485    -0.02593190     0.00915005    -0.00379006
O       5.30651433     0.58423546     2.07563357     0.00833706    -0.02571695    -0.01004402
O       0.22972122     6.10071095     2.12559334     0.02211021    -0.00287218     0.03053366
O       0.15749565     0.59039327     2.12663732    -0.02564342     0.00733279    -0.00266084
O      10.24527542    10.42050051     7.20255075    -0.01364691     0.01766400     0.04267364
O      10.14312973     4.90369747     7.12451683    -0.04967167     0.01479696     0.00582792
O       5.10833223    10.40007625     7.07381485    -0.00322262    -0.03067790     0.00759247
O       4.97371946     4.89316243     7.11483812    -0.02160653    -0.02451214     0.01341319
O       7.53380899     6.10070891     6.75738576    -0.02245448    -0.00252354     0.03018168
O       7.60617123     0.59057201     6.75826156     0.02542642     0.00747446    -0.00234099
O       2.36805331     6.17043856     6.80103329     0.02588819     0.00937476    -0.00409757
O       2.45723857     0.58418621     6.70727424    -0.00859906    -0.02529632    -0.01043791
O       7.86999321    10.42042974     2.57077588     0.01360037     0.01759329     0.04299709
O       7.97190744     4.90375301     2.49284575     0.04915463     0.01421923     0.00578421
O       2.65584142    10.40016236     2.44231842     0.00365354    -0.03108131     0.00780484
O       2.78980923     4.89313724     2.48305706     0.02142398    -0.02467669     0.01358777
