# total energy = -19073.68439237 eV

CRYSTAL
PRIMVEC
        7.60600008     0.00000000     0.00000000
        0.00000000     7.60600008     0.00000000
       -1.89786986    -1.89786986     4.85670466
PRIMCOORD
22 1
Ti      4.11383802     6.63822200     1.15836101     0.17630909     0.04320663     1.61112403
Ti      3.51144200     2.64492500     1.19734502     1.24385569     0.45736111    -0.30591048
Ti      0.17121599     6.82307001     1.08608402    -2.36508231    -1.18212734    -1.10569330
Ti     -0.21525301     2.96320998     1.08269099    -0.73905051     0.58941353     1.25370148
Ti      5.51917621     2.80545923     3.59367382     0.61370147     1.02270474    -0.70971884
Ti     -1.21196375    -0.77584777     3.84180980    -0.43549644    -0.92487063    -3.90591724
Ti      1.83210821     2.83300020     3.83643579    -0.85492194    -1.55960450    -0.58144723
Ti      1.51194624    -0.98662177     3.68033480     1.62309689     0.09528075     1.78536338
O       3.77582700     4.53037402     0.81151199    -0.36961344     2.07905984     0.33135953
O       3.98723601     0.86192898     0.75466502    -0.82778651    -1.82017048     1.43993478
O       7.19941399     4.78724798     0.67622502     0.77823851     0.05346457     0.24709776
O      -0.15405800     1.02191700     0.49440602    -1.34780980    -0.97446080     4.73115193
O       5.92494223     4.72487825     4.05912580     0.23699975     1.09039240    -0.48938910
O       5.44393620     0.94121821     3.94219281     1.21818193     0.93803340    -0.31119230
O       2.36022224     4.62126624     4.25680779    -0.66786255     0.95945764    -2.04468520
O       2.11804523     0.72963922     4.15346980    -1.22090036     0.92827297    -1.84719895
O       3.59685322     2.71863420     3.09800683     0.23618805     0.24672289     0.51929155
O       0.03962823     3.11804322     3.18415783     0.86981352    -1.31301171    -0.06090997
O       5.80800099     6.67488001     1.97317898     0.05343191     0.21077294    -0.37973691
O       5.60251300     2.82273300     1.63813501     0.46076011    -0.34998023     0.57267642
O       1.81055001     6.70253100     1.87650502     2.00181333    -0.42481479    -1.07901501
O       1.73377999     2.77006902     1.17224202    -0.68386639    -0.16510268     0.32911367
