# total energy = -4980.63719821 eV

CRYSTAL
PRIMVEC
        2.59596109     0.00000000     0.00000000
        0.00000000     4.06748184     0.00000000
        0.00000000    -0.00005279     4.06748184
PRIMCOORD
6 1
Ti      1.29798050     2.03371448     2.03374087     0.00000000     0.00000000     0.00000000
Ti      0.00000000     0.00000000     0.00000000     0.00000000     0.00000000     0.00000000
O       1.29798050     0.79268200     0.79269229     0.00000000     2.42838187     2.42838187
O       1.29798050     3.27474696     3.27478946     0.00000000    -2.42838187    -2.42838187
O       0.00000000     1.24101108     2.82643399     0.00000000    -2.42912620     2.42912620
O       0.00000000     2.82641788     1.24104776     0.00000000     2.42912620    -2.42912620
