# total energy = -19960.03286989 eV

CRYSTAL
PRIMVEC
        5.93400000     0.00000000     0.00000000
        0.00000000     9.29699974     0.00000000
        0.00000000     0.00000000     4.64899994
PRIMCOORD
24 1
Ti      4.44263802     6.76939398     2.26227698    -0.21055414     1.46367224     1.11020481
Ti      4.44370097     2.30938799     2.34302298     0.13037169    -0.31041454     0.71507496
Ti      1.50072599     7.04170197     2.35685398     0.34248238     0.52954049    -0.23018941
Ti      1.44332000     2.47991801     2.32345098    -0.17501686    -1.91940970    -0.08960632
Ti      2.91872999     4.67777697     0.04219898     0.65987207    -0.91309369    -0.21496410
Ti      3.02203798     9.24759200     4.56003599     0.64140614     0.10543532    -0.16595963
Ti      0.02571198     4.66354401     0.05255101    -0.99702918    -0.40088810    -0.70894751
Ti      5.93306003     9.19838698     0.16238100     0.09602534     0.85419021    -0.62743502
O       4.36796301     5.63891002     0.78227299     0.59265544    -0.74011546     0.01736447
O       4.48939300     0.94706800     0.70157198    -0.53428598     0.17948338     0.99107013
O       1.54494298     5.64743301     0.90521701    -0.39132385    -0.40148536    -0.37667292
O       1.44902098     0.92459400     1.00360498     0.20381605    -0.40806816    -1.19571614
O       4.48977998     8.41158598     3.57970301    -0.56951730     0.14158736     1.42824062
O       4.52174800     3.69183303     3.69762900    -0.49780458     0.81410567     1.07059104
O       1.40481801     8.38564201     3.76459500     0.45870991    -0.18688764    -0.68822929
O       1.44263900     3.64748802     3.92478902     0.52030945     0.32122038    -0.85227731
O       2.90283398     6.25150900     3.29933199    -0.19824524    -1.44622215    -0.14030567
O       3.03684002     1.43606699     3.21760999    -0.73704582     0.21916323    -0.42694109
O       5.86021999     5.85927298     3.14385601     0.98458967     1.29607919    -0.19674706
O       5.92238202     1.41268000     3.02486098     0.82653335     0.45137455     0.54118682
O       3.04045398     7.82526701     1.31972901    -1.32054067     0.37482610     0.37099335
O       3.08617903     3.29508201     1.36702100    -1.12686120     0.30551402     0.17157929
O       5.79448501     7.80882198     1.42051198     1.25983613     0.24817377    -0.17892828
O       0.05738901     3.48596900     1.54719998     0.04161743    -0.57778083    -0.32338499
