# total energy = -19960.87608045 eV

CRYSTAL
PRIMVEC
        7.60600008     0.00000000     0.00000000
        0.00000000     7.60600008     0.00000000
       -1.89786986    -1.89786986     4.85670466
PRIMCOORD
24 1
Ti      3.88902902     6.71806003     1.10687100    -2.02657743     1.49823430     1.16182950
Ti      3.80666200     2.96589698     1.23716201     0.93483726    -1.27338148    -1.31216299
Ti     -0.11614102     6.59095001     1.24015901     2.87807235     0.20546361    -0.39663678
Ti      0.03755301     2.76463802     1.24625502    -1.00847059    -0.27632427     0.73678871
Ti      5.65243320     2.74905925     3.70812481     1.11056965    -0.22631013    -0.90514358
Ti      5.69659722    -1.00684179     3.67005579    -0.46258765     0.50669932     0.39653625
Ti      1.94687522     2.92665823     3.62930481    -1.16468522    -0.66134840    -0.27901365
Ti      1.89040423    -0.83081977     3.59212883     0.42022126    -0.14992545    -0.96554755
O       3.91240601     4.86862999     0.71275799    -0.04201750    -1.48643422     0.97390313
O       3.86365598     1.04055202     0.60814600    -0.12966027    -1.08427523     1.90390003
O      -0.06370998     4.61873598     0.82509301    -0.37143378     1.65434609     0.08637444
O      -0.10887801     0.96505499     0.91568900     0.25701348    -1.55209816    -1.38863431
O       5.64773622     4.71257922     4.07501683    -0.44033320    -0.03910624     0.24917238
O       5.76091724     0.85436323     4.07922580    -0.39796604     0.06678057     0.21885187
O       2.03853724     4.80119725     4.04999479    -0.12188782    -0.55722537    -1.41318012
O       1.93994824     0.94550724     4.14701780    -0.33770013     2.06468196    -1.02533729
O       3.74047923     2.61997524     3.08413884     0.47078536     0.52224010     2.03483967
O       3.73376821    -0.85023179     3.07482780     1.49279693    -0.37108077     0.52360638
O      -0.08034980     2.68700824     3.28612780     1.33088242     0.78834243     0.09403093
O      -0.02466675    -0.99996879     3.26195779    -0.36345179    -0.32505389    -0.46285530
O       5.73487701     6.82459198     1.64555302    -1.11063470    -0.62245042     0.30988875
O       5.69406299     2.72943799     1.74121202    -0.75472422     0.84629512    -0.58367509
O       1.86838898     6.73919399     1.49722802    -0.30100379    -0.24402375     0.23843160
O       1.88475098     2.76333402     1.65498798     0.13795542     0.71595428    -0.19596750
