# total energy = -19518.04169739 eV

CRYSTAL
PRIMVEC
        5.17600016     0.00000000     0.00000000
        0.00000000     5.50899976     0.00000000
        0.00000000     0.00000000     9.26300011
PRIMCOORD
23 1
Ti      1.81651902     3.20092000     3.45056302    -0.12305561     0.05760482     1.86777653
Ti      3.41926002     2.26634599     5.80971299     0.56860533    -0.56728738    -1.32700031
Ti      4.40460102     2.09076497     1.49779398     1.39253441    -0.75758714    -2.57692998
Ti      0.83572699     3.43278198     7.69845402     0.37471760    -0.56604605     1.56313000
Ti      1.95015200     0.37738900     1.36684399     1.02252708    -1.13414231    -2.08086321
Ti      3.18634302     5.17646700     7.94920201    -1.13644319     0.81159395     0.58532548
Ti      0.76397600     0.49259999     5.89768601    -0.98257161    -0.36332555    -1.75717380
Ti      4.43151598     4.85437898     3.33695702     0.48235044     1.32171387     3.06929050
O       1.75016300     1.99835798     4.85041200    -0.96122527    -0.57617569    -1.00094317
O       3.50706899     3.56242098     4.38149899     0.42924275    -0.24398801     1.02389362
O       0.23421999     2.62182599     9.24017902    -0.46743136    -0.13248900     0.57354057
O       3.49597902     0.85059501     0.22480698    -0.43251165    -0.34060779    -0.38772867
O       1.64506898     4.72305401     9.10372802     0.71556167     0.64249835     0.30945835
O       4.29036102     0.70176301     4.87810501    -0.59411531     0.45119072    -1.37887877
O       0.88767901     4.64372997     4.55272800     0.76071515    -0.47492972    -0.26916298
O       0.15281099     3.42468302     2.48420302     0.29328302    -0.42947440    -0.28595383
O       5.13736202     2.05627701     6.69786101    -0.38084994     1.11323383     0.44642981
O       2.70768600     1.94178898     2.26993598    -0.79801570     0.44711886     0.20320156
O       2.73085899     3.42721403     7.13909599    -0.80361016     0.34064044     0.62941811
O       0.25084801     0.61026499     2.09377599    -0.72662102     0.55320005     0.26898840
O       4.92735898     4.88364698     7.23526999     0.37995391    -0.12756790    -0.15616064
O       2.40706999     0.86391499     6.76828001     0.88875150    -0.84580584     1.55201357
O       2.74136300     4.61704801     2.42219599     0.09820795     0.82063164    -0.87167140
