# total energy = -19923.53899120 eV

CRYSTAL
PRIMVEC
        6.28025206     0.00000000     0.00000000
        0.99703889     6.60930679     0.00000000
        0.00000000     0.00000000    11.27219142
PRIMCOORD
24 1
Ti      2.86713361     3.91666902     4.18190266    -0.11907657    -1.55574939     0.72361180
Ti      4.41015726     2.69263759     7.09028902     0.11907657     1.55574939    -0.72361180
Ti      5.82250661     2.69263982     1.45414810     0.11326896     0.07899923    -0.39799535
Ti      1.45478428     3.91666704     9.81804370    -0.11326896    -0.07899923     0.39799535
Ti      2.36861430     0.61201574     1.45419331    -0.11907657    -1.55574939    -0.72361180
Ti      4.90867659     5.99729105     9.81799850     0.11907657     1.55574939     0.72361180
Ti      0.95626494     0.61201332     7.09024382    -0.11326896    -0.07899923    -0.39799535
Ti      6.32102595     5.99729348     4.18194786     0.11326896     0.07899923     0.39799535
O       2.33881375     2.32724920     5.75211306     1.68508158     1.78945812    -0.40213842
O       4.93847713     4.28205741     5.52007856    -1.68508158    -1.78945812     0.40213842
O       1.50350168     2.32727591     0.11605352    -1.03912870     0.63638401     0.55197363
O       5.77378927     4.28203075    11.15613784     1.03912870    -0.63638401    -0.55197363
O       4.43995780     0.97740394     0.11601696    -1.68508158    -1.78945812    -0.40213842
O       2.83733307     5.63190266    11.15617440     1.68508158     1.78945812     0.40213842
O       5.27526994     0.97737728     5.75214968     1.03912870    -0.63638401     0.55197363
O       2.00202087     5.63192939     5.52004200    -1.03912870     0.63638401    -0.55197363
O       0.83463164     4.02015504     3.04490017     0.46425938     0.81847089     1.13259090
O       6.44265923     2.58915150     8.22729150    -0.46425938    -0.81847089    -1.13259090
O       3.75888854     2.58909003     2.59123152     0.60010239     1.18121434     0.37669041
O       3.51840233     4.02021651     8.68095997    -0.60010239    -1.18121434    -0.37669041
O       0.33611232     0.71550157     2.59119547     0.46425938     0.81847089    -1.13259090
O       6.94117855     5.89380497     8.68099595    -0.46425938    -0.81847089     1.13259090
O       3.01988301     0.71556304     8.22732743    -0.60010239    -1.18121434     0.37669041
O       4.25740786     5.89374350     3.04486419     0.60010239     1.18121434    -0.37669041
