# total energy = -19934.71819382 eV

CRYSTAL
PRIMVEC
        6.02451990     0.00000000     0.00000000
        1.57834744     6.21461353     0.00000000
        0.00000000     0.00000000    10.86912482
PRIMCOORD
24 1
Ti      3.11892600     3.68277441     4.03236799    -0.00887597    -2.01557105     0.83107598
Ti      4.48394151     2.53183953     6.83675744     0.00887597     2.01557105    -0.83107598
Ti      5.83878014     2.53184168     1.40215133    -0.28162023    -0.51070741    -0.05676149
Ti      1.76408740     3.68277250     9.46697422     0.28162023     0.51070741     0.05676149
Ti      2.32975241     0.57546769     1.40219491    -0.00887597    -2.01557105    -0.83107598
Ti      5.27311513     5.63914649     9.46693065     0.00887597     2.01557105     0.83107598
Ti      0.97491369     0.57546530     6.83671386     0.28162023     0.51070741    -0.05676149
Ti      6.62795385     5.63914882     4.03241157    -0.28162023    -0.51070741     0.05676149
O       2.46256156     2.18827121     5.54643146     1.73050245     1.98088917    -0.64393328
O       5.14030589     4.02634274     5.32269398    -1.73050245    -1.98088917     0.64393328
O       1.66126596     2.18829629     0.11190376    -0.65685231     0.03454613     0.95769103
O       5.94160162     4.02631777    10.75722136     0.65685231    -0.03454613    -0.95769103
O       4.35113228     0.91903584     0.11186850    -1.73050245    -1.98088917    -0.64393328
O       3.25173523     5.29557810    10.75725663     1.73050245     1.98088917     0.64393328
O       5.15242800     0.91901080     5.54646672     0.65685231    -0.03454613     0.95769103
O       2.45043946     5.29560320     5.32265871    -0.65685231     0.03454613    -0.95769103
O       1.17892513     3.78008038     2.93602195     0.44619764     1.49603987     1.56439704
O       6.42394232     2.43453357     7.93310349    -0.44619764    -1.49603987    -1.56439704
O       3.84944908     2.43447561     2.49857536     0.78214787     1.48441308     0.64409938
O       3.75341844     3.78013838     8.37054989    -0.78214787    -1.48441308    -0.64409938
O       0.38975151     0.67277348     2.49854065     0.44619764     1.49603987    -1.56439704
O       7.21311601     5.54184052     8.37058460    -0.44619764    -1.49603987     1.56439704
O       2.96424481     0.67283142     7.93313814    -0.78214787    -1.48441308     0.64409938
O       4.63862270     5.54178251     2.93598723     0.78214787     1.48441308    -0.64409938
