# total energy = -39035.33736688 eV

CRYSTAL
PRIMVEC
        7.60600008     0.00000000     0.00000000
        0.00000000     7.60600008     0.00000000
       -3.79573973    -3.79573973     9.71340985
PRIMCOORD
46 1
Ti      1.93819444     4.70573547     6.11889062     0.59033527     0.63756697    -1.06407689
Ti      3.88323601     6.80614100     1.28640402    -0.97939295     0.59699958    -0.34323803
Ti      2.07476943     0.79879047     6.15057860    -1.70349377    -0.85738532    -0.01104264
Ti      3.77467398     2.81926297     1.27667001    -2.29908773     0.01590511     0.43054707
Ti     -1.81781455     4.78967844     6.01029763    -0.75660009    -1.63954476    -0.37780138
Ti      0.10693101     6.63455199     1.19458499    -1.10373437    -0.63440708    -0.60913879
Ti     -1.85022656     0.89642245     6.02316965     0.76461602     0.62853108    -0.55989752
Ti     -0.22499299     2.87934200     1.25440202     2.35474622     0.92529820    -0.91852617
Ti      3.82683143     1.01998746     8.50305760    -0.93264668    -0.73588162     0.20033786
Ti      5.71505302     2.82917901     3.76612099    -2.61947970    -0.09380005     0.50566136
Ti      3.91460643    -2.73814153     8.49778864    -0.13191075     0.07359503    -1.63056723
Ti      5.65598298    -1.02124901     3.46928801    -0.68041108     0.04686814     1.80395401
Ti     -0.09924555     1.04332343     8.37673262     1.55890645    -0.86964588    -1.38401686
Ti      1.71444301     2.84641601     3.66379901     2.01513987    -0.05728163    -1.79376678
Ti      0.03524246    -2.80225654     8.50093761     0.03057814     0.27345543     1.05353382
Ti      1.77922600    -0.97157499     3.72129201     0.61260129    -0.61383028     0.61938772
O       1.98976345    -1.03290557     5.90351161    -0.43731139     0.31219195    -2.16334243
O       3.90236000     1.06352398     0.85719502    -0.67341690    -1.98861971    -1.40435275
O      -1.90332155     2.76510946     5.70524160    -0.11882538     0.66352124    -1.17095409
O      -0.07316500     4.72602302     0.86009300     0.38485315     1.42305239    -1.17898365
O      -1.92942058    -1.07818155     5.67620760     0.67253193     2.69189304    -0.85900434
O       0.07767602     1.13693102     0.68540800     0.05404229    -2.58131808     1.10350272
O       3.58794246     2.88391647     8.92376764     0.94981317     0.07224674     0.54270994
O       5.53111302     4.65753198     3.96668700     0.21372714     1.00849065     0.09223502
O       3.94892945    -0.89058954     8.83845665    -0.11691890     0.22270904    -0.19549570
O       5.72763500     0.99004899     4.09627902     0.34959148    -2.79812721    -0.66734087
O       0.21027546     2.71477148     9.01617464    -0.72951814     1.39771827     0.48748623
O       2.02456998     4.67629702     4.08191101    -0.63773512    -0.41371328     0.48930322
O      -0.21283356    -0.76654457     8.95046262     0.03546632    -0.53657040     0.02726553
O       1.67535702     0.91255802     4.09040499     0.29956011     0.17055265     0.27972610
O       1.82879646     0.61572646     8.02316861     1.98960650     1.15819781     0.58939451
O       3.80283298     2.56563001     3.14012801     0.37198529     0.61036623     0.95504768
O       1.84575845    -2.78593555     7.97396264     0.63246436    -0.05563381     1.65040304
O       3.81589397    -1.01314699     3.28771999    -0.88668973     0.36589331    -0.69197976
O      -1.95183753     1.18051343     7.98504562     0.35791235    -0.23315775     0.63408801
O      -0.11514701     2.84768498     3.18879401     0.01884748    -0.09676530     0.02939955
O      -1.77996356    -2.90957855     7.92688560    -0.61611188    -0.01804041     1.86079855
O      -0.16653499    -1.26304899     3.27719698     2.73547917     0.81171300    -0.78795368
O       3.90203646     4.71853447     6.39870664    -1.61734893    -0.66179371     1.13893150
O       5.67822202     6.58846499     1.36567498     0.46256297     0.08653488     2.16224662
O       3.90069944     0.93752947     6.40172564    -0.85133140     0.37701694     0.43843007
O       5.59473298     2.96462701     1.38648498     0.67642330     0.55748608     0.66140059
O       0.00665647     4.50033246     6.25355760     1.62958610     0.24271814     0.60136223
O       1.89771799     6.53805398     1.73288801    -0.11228809     0.41059016    -0.52954203
O       0.17894346     1.27834745     6.43744363    -1.75553112    -0.60812140     0.19230933
O       1.86790801     3.11468898     1.74493002    -0.00159228    -0.28747412    -0.20843992
