# total energy = -39031.40606315 eV

CRYSTAL
PRIMVEC
        5.93200024     0.00000000     0.00000000
        0.00000000     9.29399984     0.00000000
        0.00000000     0.00000000     9.29399984
PRIMCOORD
46 1
Ti      4.48875401     7.33425799     6.94323802    -1.80804129    -1.40134482    -0.09519462
Ti      4.50675599     6.56721398     2.52349099     0.91767797     0.53272197    -0.69297298
Ti      4.36494199     2.17129199     7.03467900    -0.23885120    -0.21805225    -0.86396272
Ti      4.49684000     2.55660802     2.08260199    -1.72032911    -0.96379715     1.30006106
Ti      1.50877001     6.86006802     7.06914299     1.09757504    -0.93987277    -0.01911436
Ti      1.42354300     7.09272699     2.10293499    -0.57806674    -1.10028575    -0.14785751
Ti      1.45159998     2.51570198     6.85073201     0.28004415    -0.95461933    -1.08235950
Ti      1.46500002     2.00271200     2.69915799     0.22003149     0.58972541     1.11250287
Ti      2.93419302     4.70332999     4.50423001    -1.73101693    -0.77965210     2.85571608
Ti      2.99601299     4.65286299     8.92728101     0.81438154     1.49040941     0.09829820
Ti      2.92349798     9.16911099     4.59970899     0.52836061     0.36316126     0.38264534
Ti      2.85445199     0.02668800     0.25036201     1.27473645    -0.20993502    -0.87718822
Ti      5.84898498     4.77419799     4.59968999     0.61289697    -0.20219934     2.31565361
Ti      5.90343203     4.68221799     9.04558901    -0.02179088     1.78669907     0.65529782
Ti      5.92579199     9.08688299     4.82380899    -0.68725510     0.59537001    -0.68412118
Ti      0.00629499     0.02570600     0.00990398    -0.92338916     0.71353256    -1.21718794
O       4.66473201     5.95102501     5.55343700     0.21535285    -2.29781657    -1.43848159
O       4.40452201     5.22311397     0.94757098    -0.36524745    -0.40363455     0.20693146
O       4.44147203     0.78740998     5.68707902     0.52234346    -0.61802941    -0.96040457
O       4.44430201     1.06591401     0.94442602    -0.11275680    -0.67567845    -0.48075430
O       1.63791001     5.62278499     5.60134902    -1.32815911     0.22184669     0.57823489
O       1.36130303     5.97471601     0.57975702     0.79343013    -2.52676671     0.05298943
O       1.61733898     1.10914700     5.44452502    -0.95088738    -1.41816986    -1.05539042
O       1.33294098     0.80925500     1.10499999     1.24550891    -0.74482187     0.71204620
O       4.50177299     8.41428499     8.59211099    -0.81954689    -0.00232094    -1.27466729
O       4.53140200     7.97586598     4.07336702     0.41588200     1.93473913    -0.86582882
O       4.49430799     3.62461402     8.23406701    -0.36881100     1.87002676     2.88028581
O       4.28666498     4.08301201     3.43022298     2.38396090    -1.39356028     0.27198759
O       1.69037698     8.42636997     8.33658701    -1.07234222     0.52887843     1.88881304
O       1.39621698     8.32563997     3.66980301    -0.12355107     1.70003975     0.73259087
O       1.43618801     3.99519902     8.07139999     0.70761233    -0.09799583     1.60797983
O       1.49217602     3.62945102     4.06197097    -0.17717067    -0.97969865    -1.78212945
O       3.22908202     6.09810798     7.81314001    -0.92508635    -0.21428739     0.37766048
O       2.95818698     6.12343900     3.39137200    -1.91724329     1.09876057    -1.66333210
O       2.84220000     1.59282500     7.99003899     0.37811814    -0.65002500     0.36764295
O       3.15955300     1.36072098     3.19985403     0.77713010     0.22319421    -0.15431227
O       5.79211499     6.07837601     7.83901799     0.01758147     0.42323099    -0.00461899
O       0.39521201     5.81022200     3.14992001    -1.81150997     0.73210313    -0.41634943
O       0.07914100     1.47758697     7.97946301    -0.08681796    -0.77692570    -0.01862354
O       2.76583697     7.92105999     6.07253400     1.13712582     0.40732845     0.15596266
O       2.98691897     7.86885698     1.53405998     0.71409614     0.65384592    -0.39304597
O       3.10179198     3.32209900     6.12836601    -0.17632195    -0.35862094    -0.45841167
O       0.16433102     7.95421099     6.21513002     0.75670885     0.60608817     0.33500098
O       5.57060901     7.65772801     1.48401002     1.84205212     1.32991260     0.12117665
O       5.84377502     3.35956602     6.20051102    -0.04163569    -0.46389969    -1.61493003
O       0.24902002     2.82299198     1.59932600     0.33322126     2.59039562    -0.74823809
