# total energy = -4985.69981084 eV

CRYSTAL
PRIMVEC
        3.75301777     0.00000000     0.00000000
        0.00000000     4.34639491     0.00000000
        0.00000000    -0.00006857     5.23110534
PRIMCOORD
6 1
Ti      1.87650894     2.17316299     2.61555267     0.00000000     0.00000000     0.00000000
Ti      0.00000000     0.00000000     0.00000000     0.00000000     0.00000000     0.00000000
O       1.87650894     0.84703492     1.01946537     0.00000000     0.45500470     0.60091743
O       1.87650894     3.49929101     4.21163992     0.00000000    -0.45500470    -0.60091743
O       0.00000000     1.32610036     3.63501920    -0.00000000    -0.45568347     0.60184868
O       0.00000000     3.02022562     1.59608615    -0.00000000     0.45568347    -0.60184868
