# total energy = -19073.02713715 eV

CRYSTAL
PRIMVEC
        7.60600008     0.00000000     0.00000000
        0.00000000     7.60600008     0.00000000
       -1.89786986    -1.89786986     4.85670466
PRIMCOORD
22 1
Ti      3.84985398     6.69491402     1.60807102     0.45692145     0.87754766    -1.45485052
Ti      3.63915602     2.80040500     0.95386501     0.71052077    -0.97079106     0.19036609
Ti      0.19078798     6.70804598     1.14479502    -1.50082521    -0.53237050     2.71959592
Ti      0.05961002     2.89574898     0.92162198    -1.05057140     0.48421809    -0.46412774
Ti      5.51846722     2.96247522     3.34213381    -0.06423107    -1.96821234     0.62908541
Ti     -1.47751876    -0.96776179     3.86925679     1.40340684     2.02170287    -1.58730404
Ti      1.87675125     2.98673821     3.90926481    -0.32436844    -1.51656473    -2.47949670
Ti      1.42605924    -1.10864179     3.97769881    -0.55091819     0.97167655     0.43516014
O       3.54971898     4.69477298     0.81376100    -0.77908080     0.29201572     2.52256013
O       3.78737698     0.85392999     1.12319702     0.43568182    -0.07337957     0.87076072
O       0.39598402     4.69117701     0.52468501     0.11127687     0.59753797     0.37779932
O      -0.02254999     1.00016501     0.93556702    -0.67188273    -1.43365460     0.23566637
O       5.70347124     4.84331521     4.22203280    -0.38853780    -0.56272804    -3.47075273
O       5.24575424     1.00114425     3.83234980     0.74036948    -0.25169258     0.18889696
O       2.22298621     4.71765424     4.53090282    -0.56777898     1.72103539    -1.37428986
O       1.99011022     0.91059223     3.99269680     1.57561143     0.67524959     0.28134307
O       3.65600423     3.02864021     3.16330984    -0.39610893     0.31305712    -0.52413526
O       0.25668822     2.83270625     2.82721783     0.66792965     1.17164675     0.94165840
O       5.96228199     6.67760601     1.85894703    -0.62828580    -0.91318805     0.94792418
O       5.56790603     3.00092698     1.42388300     1.00548940    -0.00952645     0.94805916
O       1.84266599     6.75318898     2.13089100     1.11542184    -1.17288139     0.01314606
O       0.03142720     0.04236720     4.82000982    -1.30004023     0.27930213     0.05293492
