# total energy = -4983.41264333 eV

CRYSTAL
PRIMVEC
        3.92509307     0.00000000     0.00000000
        0.00000000     2.63572813     0.00000000
        0.00000000    -0.00008447     5.22961970
PRIMCOORD
6 1
Ti      1.96254653     1.31782178     2.61480975     0.00000000     0.00000000     0.00000000
Ti      0.00000000     0.00000000     0.00000000     0.00000000     0.00000000     0.00000000
O       1.96254653     0.51364812     1.01917584     0.00000000    -1.68619153    -0.51643223
O       1.96254653     2.12199549     4.21044366     0.00000000     1.68619153     0.51643223
O       0.00000000     0.80414016     3.63398658     0.00000000     1.68612674    -0.51851071
O       0.00000000     1.83150340     1.59563286     0.00000000    -1.68612674     0.51851071
