# total energy = -4977.56352993 eV

CRYSTAL
PRIMVEC
        4.92032300     0.00000000     0.00000000
       -0.00000745     2.95219380     0.00000000
       -2.46018921    -1.47615075     5.35844397
PRIMCOORD
6 1
Ti     -0.00021090     2.21425028     1.33961064    -0.00917473    -0.00966092    15.53516642
Ti      2.46033708    -0.73820735     4.01883268     0.00917473     0.00966092   -15.53516642
O       0.00005211     0.73803897     0.87284662     0.00630075     0.01083900    -8.62939263
O       2.46007395     0.73800391     4.48559674    -0.00630075    -0.01083900     8.62939263
O      -0.00002027    -0.73804879     3.55206861    -0.00230397    -0.00002880    -1.99307877
O       2.46014628     2.21409162     1.80637470     0.00230397     0.00002880     1.99307877
