# total energy = -19517.18742432 eV

CRYSTAL
PRIMVEC
        5.17600016     0.00000000     0.00000000
        0.00000000     5.50899976     0.00000000
        0.00000000     0.00000000     9.26300011
PRIMCOORD
23 1
Ti      1.79692200     3.22001700     3.36803100     1.05691560    -0.70095754     3.39342214
Ti      3.33830198     2.20860698     5.85441000     0.53836118     0.93535919    -2.99454619
Ti      4.33205802     2.13481199     1.58555199     0.74150257    -0.62865732    -2.77484175
Ti      0.82751500     3.38789700     7.75861200    -0.00062298    -0.59578087     1.40181867
Ti      2.05214101     0.24634201     1.27713601    -1.05773835    -0.29605673    -0.43388847
Ti      3.25318800     5.17559899     7.87351702     0.48928523    -0.27047578     0.97136442
Ti      0.80540598     0.52519900     5.94430298    -0.82870388    -0.00933568    -3.43508534
Ti      4.50834802     4.98395898     3.35457302     0.06412334    -0.00720243     3.47004079
O       1.74069401     1.86072898     4.84729298    -0.54922229    -0.00081555    -0.86565733
O       3.45604900     3.54055099     4.34983498     0.77701157    -0.80200502     1.35544110
O       5.07309900     2.67730499     9.21965800     0.32401851     0.77639091     0.10275649
O       3.50651002     0.64158000     0.21172202     0.96953148     0.62363904     0.20814373
O       1.82126998     4.63006900     9.01542300    -0.74197308    -0.95993226     0.54633931
O       4.29529999     0.68841399     4.84499302    -0.46330602     0.17321040    -0.25521962
O       1.00285598     4.68632102     4.49478002    -0.50530218    -0.24717001     0.13036912
O       0.09792801     3.34186901     2.56250702     0.28428390     1.30952066    -0.38497450
O       5.05498002     2.10276698     6.70785601     0.12053799     0.35265007     0.14943771
O       2.59652200     1.85093602     2.15327298    -0.77731419     1.46239800     0.46867808
O       2.61319902     3.62729298     6.89331501    -0.30288404    -0.13327035     0.72170970
O       0.20893299     0.81393700     2.22714099     0.91293582    -1.66809867    -0.60758430
O       5.12911098     4.92344201     7.29156000    -1.28502678    -0.16483348     0.14875431
O       2.35355498     0.97991101     7.03385301    -0.12208425     0.35341009     0.24211548
O       2.77538698     4.58903601     2.46217300     0.35567112     0.49801310    -1.55859432
