# total energy = -4989.57447404 eV

CRYSTAL
PRIMVEC
        2.91564224     0.00000000     0.00000000
        0.68142360     4.51726747     0.00000000
       -0.00000428    -0.00005930     4.58134962
PRIMCOORD
6 1
Ti      1.79853051     2.25860400     2.29067476     0.00000000     0.00000000     0.00000000
Ti      0.00000000     0.00000000     0.00000000     0.00000000     0.00000000     0.00000000
O       1.59061958     0.88033729     0.89283753    -1.18951001     0.53074428     0.52611886
O       2.00644145     3.63687072     3.68851193     1.18951001    -0.53074428    -0.52611886
O       0.20790908     1.37824269     3.18351326     1.18935368    -0.53087386     0.52631735
O       0.47350982     3.13896541     1.39783620    -1.18935368     0.53087386    -0.52631735
