# total energy = -4988.42532971 eV

CRYSTAL
PRIMVEC
        3.20415769     0.00000000     0.00000000
        0.00000000     5.02043473     0.00000000
        0.00000000    -0.00006515     5.02043473
PRIMCOORD
6 1
Ti      1.60207879     2.51018473     2.51021731     0.00000000     0.00000000     0.00000000
Ti      0.00000000     0.00000000     0.00000000     0.00000000     0.00000000     0.00000000
O       1.60207879     0.97839607     0.97840877    -0.00000000    -0.62366784    -0.62366784
O       1.60207879     4.04197339     4.04202584    -0.00000000     0.62366784     0.62366784
O       0.00000000     1.53176224     3.48862710     0.00000000     0.62424120    -0.62424120
O       0.00000000     3.48860722     1.53180752     0.00000000    -0.62424120     0.62424120
