# total energy = -19517.96043995 eV

CRYSTAL
PRIMVEC
        5.93400000     0.00000000     0.00000000
        0.00000000     9.29699974     0.00000000
        0.00000000     0.00000000     4.64899994
PRIMCOORD
23 1
Ti      4.45012302     7.02495002     2.20814998    -0.31021091     1.23085516     0.08492280
Ti      4.46719502     2.32329699     2.27215799     0.76285379    -0.49796605     0.54426983
Ti      1.36882200     7.00581301     2.30947600     0.10157507     0.68683190    -0.17994052
Ti      1.53922602     2.32916700     2.43354398    -0.93303697    -0.90229505    -0.19162902
Ti      2.96145602     4.55553798     0.16212001     0.44537000    -0.92992825    -0.38343878
Ti      2.97583800     0.08355698     4.62598301    -0.00515892    -0.47463508     0.96586843
Ti      5.93189001     4.63220402     0.10807599    -0.10875179    -1.02085200    -1.33722585
Ti      0.03197897     9.27611402     4.51746500    -0.49099244     0.43800456     0.57699922
O       4.50626899     5.51490803     0.90616799    -1.29056802     0.91746456     0.43543525
O       4.41595102     0.88875197     0.91026800     0.71993281     0.84053507     0.24816297
O       1.50005002     5.47382598     0.90807298     0.30872481     1.49596710     0.33410958
O       1.56912501     0.92182598     0.93535799    -1.03940920     0.05668590    -0.36577324
O       4.39461798     8.44658301     3.71920303     0.79447914    -1.25738304    -1.07998328
O       4.46264197     3.72189802     3.73624603    -0.33071984     0.21805663     0.21616815
O       1.46898298     8.39439502     3.64347898     0.14762791    -0.65343146    -0.05272460
O       1.48753101     3.61688899     3.86669600     0.37144021     0.78879237    -0.45882587
O       2.98316399     1.42625599     3.30218701     0.25188798     0.83438088    -1.15144969
O       5.85553402     6.09664300     3.19496998     0.51562002     0.04043267    -0.06266295
O       0.03106599     1.28348100     3.13493001    -0.37307595     1.00958903     0.07528193
O       2.95169699     7.91817100     1.28052401     0.12333664    -1.77680032     1.51629554
O       2.93831399     3.27236401     1.49727798     0.57129831    -0.01018389    -0.18805647
O       5.92147401     7.88904001     1.30949901     0.08566173    -0.32590673     0.10672550
O       0.03402001     3.31866802     1.46836601    -0.31788437    -0.70821371     0.34747109
