# total energy = -4986.68848099 eV

CRYSTAL
PRIMVEC
        2.85036520     0.00000000     0.00000000
        0.00000000     4.04075284     0.00000000
        0.00000000    -0.00005527     4.26408395
PRIMCOORD
6 1
Ti      1.42518260     2.02034864     2.13204198     0.00000000     0.00000000     0.00000000
Ti      0.00000000     0.00000000     0.00000000     0.00000000     0.00000000     0.00000000
O       1.42518260     0.78747238     0.83100715    -0.00000000     0.57103374     0.43088928
O       1.42518260     3.25322485     3.43307675    -0.00000000    -0.57103374    -0.43088928
O       0.00000000     1.23285386     2.96304999    -0.00000000    -0.57017705     0.42996343
O       0.00000000     2.80784342     1.30103391    -0.00000000     0.57017705    -0.42996343
