# total energy = -19958.97667915 eV

CRYSTAL
PRIMVEC
        4.97027571     0.00000000     0.00000000
        0.26435586     5.28326679     0.00000000
        0.00000000     0.00000000     8.89848224
PRIMCOORD
24 1
Ti      1.95814286     3.13085888     3.30127344     0.40640826     0.14310508    -0.13761192
Ti      3.27648851     2.15240771     5.59720890    -0.40640826    -0.14310508     0.13761192
Ti      4.39424055     2.15240952     1.14793217    -0.50335019    -0.55286657     0.66962658
Ti      0.84039087     3.13085727     7.75055028     0.50335019     0.55286657    -0.66962658
Ti      1.82596504     0.48922568     1.14796783     0.40603622     0.14007684     0.15404770
Ti      3.40866633     4.79404106     7.75051461    -0.40603622    -0.14007684    -0.15404770
Ti      0.70821304     0.48922372     5.59717319     0.50364227     0.54821468     0.65269715
Ti      4.52641838     4.79404302     3.30130916    -0.50364227    -0.54821468    -0.65269715
O       1.66620776     1.86032797     4.54082738    -0.73409908    -0.56967980    -0.20222197
O       3.56842361     3.42293862     4.35765497     0.73409908     0.56967980     0.20222197
O       1.00512850     1.86034929     0.09161486     0.80473348    -0.78636577     0.02136767
O       4.22950292     3.42291735     8.80686723    -0.80473348     0.78636577    -0.02136767
O       3.43624578     0.78130527     0.09158600     0.73389236     0.56927947    -0.20186767
O       1.79838558     4.50196131     8.80689609    -0.73389236    -0.56927947     0.20186767
O       4.09732509     0.78128400     4.54085628    -0.80534026     0.78700880     0.02096453
O       1.13730622     4.50198269     4.35762606     0.80534026    -0.78700880    -0.02096453
O       0.34137782     3.21358224     2.40370209    -0.42334129    -0.01599227    -0.42191099
O       4.89325359     2.06968435     6.49478030     0.42334129     0.01599227     0.42191099
O       2.76928642     2.06963513     2.04556738    -0.07731079    -0.37265994    -0.09232912
O       2.46534500     3.21363146     6.85291482     0.07731079     0.37265994     0.09232912
O       0.20920000     0.57194889     2.04553898    -0.42372027    -0.01591771     0.42188707
O       5.02543142     4.71131769     6.85294321     0.42372027     0.01591771    -0.42188707
O       2.33316717     0.57199812     6.49480865     0.07683385     0.37274068    -0.09239725
O       2.90146424     4.71126847     2.40367364    -0.07683385    -0.37274068     0.09239725
