# total energy = -39036.69286121 eV

CRYSTAL
PRIMVEC
        7.60600008     0.00000000     0.00000000
        0.00000000     7.60600008     0.00000000
       -3.79573973    -3.79573973     9.71340985
PRIMCOORD
46 1
Ti      1.90690842     4.80029945     6.14314260    -0.05477994    -0.57237791     0.62325698
Ti      3.68315801     6.95494299     1.26316599    -0.03032566    -1.65438003    -0.06170393
Ti      2.01216442     0.64332645     6.08761963    -0.29824576     0.74426985     0.13589802
Ti      3.69476001     2.73009602     1.21245002     0.70295092     2.28662636     0.00674966
Ti     -1.89845053     4.67109246     6.01014760     0.05817612     0.55335894     1.09134679
Ti     -0.12182100     6.73390100     1.21236799     0.49442846    -0.42952068     0.88541601
Ti     -1.85490454     0.91611144     6.05356363     0.71521432     0.09506477     0.08277773
Ti     -0.02687300     2.83030098     1.15957701    -0.28912220     0.93217719    -0.50199034
Ti      3.90747043     1.11504547     8.48902361     0.00625267    -2.47320624     0.06310055
Ti      5.69104102     2.85361102     3.54277602     0.17090900    -0.25750842     0.19285775
Ti      3.80812544    -2.80226056     8.51207864     1.74883005     1.97305321    -0.31668804
Ti      5.62902600    -0.89983702     3.70548802     0.72410648    -0.08591499     0.04559750
Ti      0.11663442     0.99296946     8.41168562    -0.05070037     0.06627612    -1.61758599
Ti      1.89361898     2.71115698     3.60124502    -0.33888489    -0.62624794    -0.48960893
Ti      0.07365242    -2.73344953     8.50924564    -1.53800671     0.30756036    -0.65664045
Ti      1.86564900    -1.20377601     3.65857799    -0.85387525     1.05469776     0.62049433
O       1.61690945    -1.08633057     5.73134062     0.26114216    -0.16877242    -1.68863151
O       3.42410998     1.05526400     0.72642003     0.65896704    -1.30763373    -0.66214673
O      -1.93324753     2.85915347     5.70675864    -0.36575396    -0.43325187    -0.61133785
O      -0.07766602     4.76123701     0.74877401     0.03134844     1.78350062     0.05011750
O      -1.68032256    -0.94739153     5.63150260    -0.34061087    -0.52563344    -0.82828042
O       0.11949002     1.01829599     0.86344000    -0.72868484    -1.44545956    -0.93221010
O       3.63663243     2.92990547     8.82138560    -0.07993640    -0.14498199     0.61648135
O       5.75757199     4.70965498     3.99525702    -0.51397605     0.63071164     0.27671945
O       3.97005543    -0.87223857     8.93351964    -0.04452690    -0.45288688     0.20899528
O       5.68632399     0.97521398     4.01312500     0.06282313    -0.37237018     0.43832337
O       0.17734444     2.73520745     9.05341162    -0.01226982     1.08099887     0.87647757
O       2.09441101     4.50135600     4.22457100    -0.46840683     0.35496406    -0.68420886
O      -0.14057054    -0.78261955     8.75985060     0.37961632    -1.54648956     1.46086305
O       1.91228698     0.88695298     4.14885002     0.16257760     0.94479180     0.01784912
O       1.99862844     0.68067546     8.02899665     0.29797503     1.22123743     0.29926649
O       3.80274403     2.71341302     3.17284402    -0.79997025     0.27552414     0.07719689
O       1.96480745    -2.49252454     8.10609661    -1.67130586    -1.06041281     0.52329168
O       3.68927699    -0.92213999     3.42687800     1.19927197    -0.26044411    -1.17210363
O      -1.80590357     1.13462545     7.99368661    -0.90668058     0.40640774     0.53653466
O      -0.05630203     2.85721699     3.12207301     1.02665910     0.00948146     0.96986264
O      -1.92730456    -2.86139554     8.13248361     0.74638664    -0.33282351    -0.56748947
O       0.05469301    -0.87418103     3.22336399    -1.76947499    -0.74910044    -0.41788721
O       3.80525444     5.02630147     6.54085862     0.22096120    -1.13908577    -0.67046939
O       5.57855598     6.84619802     1.61278202     0.34669256    -0.22094526     0.69371706
O       3.94674644     0.57525647     6.46236163    -1.18973369     1.02032313     0.01709707
O       5.64454100     2.63058202     1.60172301    -0.16382690     0.75988416    -0.65652192
O      -0.02633154     4.61953043     6.48254165     0.97126492    -0.36784272     0.62167318
O       1.79910999     6.85349998     1.61914998     1.10617178    -1.55353670     0.23220670
O       0.09535843     0.87819547     6.41870461     0.21118818     0.92129937     0.39000230
O       1.87627599     2.89241998     1.59697201     0.20518439     0.75861867     0.48133434
