# total energy = -19933.15820502 eV

CRYSTAL
PRIMVEC
        6.04487715     0.00000000     0.00000000
        1.88763231     6.15042760     0.00000000
        0.00000000     0.00000000    10.94557063
PRIMCOORD
24 1
Ti      3.30958635     3.64473773     4.06072864     0.05281279    -2.21636400     0.82533805
Ti      4.62292301     2.50569001     6.88484205    -0.05281279     2.21636400    -0.82533805
Ti      5.98233982     2.50569212     1.41201298    -0.50314014    -0.71535470     0.07839091
Ti      1.95016963     3.64473584     9.53355783     0.50314014     0.71535470    -0.07839091
Ti      2.36577034     0.56952403     1.41205686     0.05281279    -2.21636400    -0.82533805
Ti      5.56673905     5.58090388     9.53351395    -0.05281279     2.21636400     0.82533805
Ti      1.00635350     0.56952174     6.88479817     0.50314014     0.71535470     0.07839091
Ti      6.92615589     5.58090618     4.06077252    -0.50314014    -0.71535470    -0.07839091
O       2.57790918     2.16567015     5.58544091     1.76484237     2.06847254    -0.74105957
O       5.35460019     3.98475764     5.36012978    -1.76484237    -2.06847254     0.74105957
O       1.77390717     2.16569497     0.11269080    -0.49010181    -0.23882652     1.14891304
O       6.15860227     3.98473288    10.83287958     0.49010181     0.23882652    -1.14891304
O       4.41078415     0.90954376     0.11265529    -1.76484237    -2.06847254    -0.74105957
O       3.52172522     5.24088403    10.83291509     1.76484237     2.06847254     0.74105957
O       5.21478623     0.90951900     5.58547642     0.49010181     0.23882652     1.14891304
O       2.71772309     5.24090886     5.36009426    -0.49010181    -0.23882652    -1.14891304
O       1.36778935     3.74103876     2.95667170     0.49364659     1.84855470     1.83357519
O       6.56472002     2.40938903     7.98889899    -0.49364659    -1.84855470    -1.83357519
O       3.98152465     2.40933168     2.51614846     0.84458019     1.63440281     0.81533260
O       3.95098471     3.74109611     8.42942205    -0.84458019    -1.63440281    -0.81533260
O       0.42397324     0.66582489     2.51611350     0.49364659     1.84855470    -1.83357519
O       7.50853606     5.48460291     8.42945701    -0.49364659    -1.84855470     1.83357519
O       3.00716867     0.66588224     7.98893389    -0.84458019    -1.63440281     0.81533260
O       4.92534070     5.48454556     2.95663674     0.84458019     1.63440281    -0.81533260
