# total energy = -19961.62734355 eV

CRYSTAL
PRIMVEC
        7.60600008     0.00000000     0.00000000
        0.00000000     7.60600008     0.00000000
       -1.89786986    -1.89786986     4.85670466
PRIMCOORD
24 1
Ti      3.83523599     6.63812600     1.14246701    -1.36945284    -0.00665350     0.76502432
Ti      3.78045497     2.87307998     1.17209999     0.21540427     0.01625041     1.13192087
Ti     -0.02176099     6.70282898     1.23698802     1.36014802    -1.31858020    -0.77112220
Ti     -0.03350999     2.77249799     1.23030202    -0.22361407     1.70430933     0.54711270
Ti      5.73106423     2.77334923     3.71622180    -1.01438851     1.60681126    -0.59163600
Ti      5.74517125    -0.94951978     3.61304282    -0.89137531    -0.98214326     0.23675369
Ti      1.85807023     2.79878122     3.62553283     1.50030636     0.32470037    -0.56273164
Ti      1.90356323    -0.95600977     3.69756984     0.63422942     0.31281518    -1.25533927
O       3.80621601     4.71144498     0.74123699     0.10193194     2.00868332    -0.38168118
O       3.71781002     1.02919900     0.82055198     0.45962780    -1.50005619    -0.60955608
O      -0.03973401     4.72173298     0.86729601     0.04584870     0.36019626    -0.70351528
O      -0.06696701     0.94431098     0.80456400     0.10063276     0.44617115    -0.51243751
O       5.85545322     4.71084325     4.10938981    -0.13541723     0.80045644    -0.04069544
O       5.67093721     0.96681424     4.03108782     0.07455713    -1.30035622     0.40398731
O       1.76564424     4.77567921     4.03643881     0.31077475    -0.15200779     0.73257775
O       1.95700923     0.95736123     3.94624584     0.03937209    -0.20311105     0.47379175
O       3.79369922     2.84988223     3.12705680     0.23208791     0.04562064     1.01253088
O       3.83509824    -1.08219976     3.25515479     0.10832010     0.15091198    -0.31237192
O       0.04155523     2.72167020     3.22154479    -0.98026713    -0.09147500    -0.48329507
O       0.00281924    -0.85606480     3.19754480    -0.41483376    -0.16232460     0.43232293
O       5.70308002     6.68446500     1.59097500    -0.50356025     0.07687858     0.26120335
O       5.66481299     2.97798001     1.64016002     1.46083811    -0.64536410     0.17041535
O       1.90918002     6.81691298     1.68498001     0.40191397    -0.68539568    -0.23115203
O       1.94064099     3.06150100     1.57228599    -1.51308372    -0.80633733     0.28789296
