# total energy = -19921.91245966 eV

CRYSTAL
PRIMVEC
        6.31639205     0.00000000     0.00000000
        0.33595224     6.71415154     0.00000000
        0.00000000     0.00000000    11.30848785
PRIMCOORD
24 1
Ti      2.48847322     3.97879982     4.19536833    -0.00244306    -1.12975986     0.68640329
Ti      4.16387081     2.73535147     7.11311965     0.00244306     1.12975986    -0.68640329
Ti      5.58434736     2.73535376     1.45883046     0.08969502     0.63421374    -0.58367406
Ti      1.06799674     3.97879778     9.84965764    -0.08969502    -0.63421374     0.58367406
Ti      2.32049723     0.62172430     1.45887579    -0.00244306    -1.12975986    -0.68640329
Ti      4.33184680     6.09242718     9.84961232     0.00244306     1.12975986     0.68640329
Ti      0.90002074     0.62172182     7.11307426    -0.08969502    -0.63421374    -0.58367406
Ti      5.75232335     6.09242967     4.19541372     0.08969502     0.63421374     0.58367406
O       2.11747236     2.36416679     5.77063479     1.51406768     1.48380990    -0.13895275
O       4.53487167     4.34998449     5.53785319    -1.51406768    -1.48380990     0.13895275
O       1.27735080     2.36419389     0.11642721    -1.29542535     1.10169703     0.17682511
O       5.37499330     4.34995746    11.19206044     1.29542535    -1.10169703    -0.17682511
O       4.36689568     0.99290879     0.11639054    -1.51406768    -1.48380990    -0.13895275
O       2.28544835     5.72124250    11.19209711     1.51406768     1.48380990     0.13895275
O       5.20701731     0.99288175     5.77067153     1.29542535    -1.10169703     0.17682511
O       1.44532666     5.72126967     5.53781645    -1.29542535     1.10169703    -0.17682511
O       0.43383432     4.08392743     3.05470474     0.47790501     0.06364254     0.59167791
O       6.21850977     2.63022386     8.25378330    -0.47790501    -0.06364254    -0.59167791
O       3.51930149     2.63016131     2.59957521     0.52297929     0.61735758    -0.08261935
O       3.13304260     4.08398998     8.70891258    -0.52297929    -0.61735758     0.08261935
O       0.26585833     0.72685172     2.59953912     0.47790501     0.06364254    -0.59167791
O       6.38648576     5.98729957     8.70894867    -0.47790501    -0.06364254     0.59167791
O       2.96506661     0.72691427     8.25381932    -0.52297929    -0.61735758    -0.08261935
O       3.68727748     5.98723702     3.05466859     0.52297929     0.61735758     0.08261935
