# total energy = -19076.20041914 eV

CRYSTAL
PRIMVEC
        7.60600008     0.00000000     0.00000000
        0.00000000     7.60600008     0.00000000
       -1.89786986    -1.89786986     4.85670466
PRIMCOORD
22 1
Ti      3.77677698     6.61336601     1.25897300     0.59122848     0.41315175    -1.51049847
Ti      3.75030298     2.85876701     1.14812302     0.62518813    -0.30962496     0.81497573
Ti      0.16625199     6.65396301     1.05078801    -0.19506247     1.03913538     0.85237321
Ti      0.03657297     2.94464099     1.19191000    -0.45488951    -1.16405273    -1.29485740
Ti      5.63398820     2.92205423     3.49324079    -0.90084418    -0.66617179     0.25363916
Ti      6.07136420    -0.91303676     3.62613181    -0.58012311     0.56227167     1.26367299
Ti      1.81519222     2.75276624     3.65081983     1.11795104     0.38915872    -0.56398866
Ti      1.51739222    -1.09011577     3.88118582     0.85041043    -0.11115346    -1.00899407
O       3.54868698     4.79650800     0.68457301     0.12478211    -1.27919243     1.19058961
O       3.93946602     0.90809002     0.88379999    -0.98522576     0.26545853     0.14404765
O       0.13304098     4.80471199     0.64881301     0.11108044     0.30365742     0.94374408
O      -0.05937797     1.02605902     0.78759001     0.67692646    -0.27257715    -0.05953083
O       5.40751325     4.83474523     4.06178581     0.81660864     0.44082017    -1.33281666
O       5.73795423     1.03024021     4.00788980     0.45222353    -1.25930957    -0.35052839
O       2.22425824     4.71167025     4.14374981    -1.34913135     1.16623251    -0.25230913
O       1.98865424     0.86975224     4.03972082    -0.89951466    -0.31670192     0.47662511
O       3.76579422     2.75144722     3.24586980     0.38655856     0.19084252    -0.51234597
O      -0.03363879     2.85333220     3.11094881     0.32789702     0.54052168     0.92328580
O       5.60268001     6.66608302     1.81749599     0.63283794    -0.56026107     0.40569195
O       5.67942902     2.89960399     1.53441902    -0.30292569     0.73802541     0.27066861
O       1.99960499     6.67346700     1.96214601    -0.82505034    -0.22523643     0.23358609
O       1.91824298     2.80703898     1.68709301    -0.22092521     0.11500600    -0.88703041
