# total energy = -19915.62457923 eV

CRYSTAL
PRIMVEC
        7.53589587     0.00000000     0.00000000
        0.00002468     3.43734508     0.00000000
        0.00000000     0.00000000    11.46904451
PRIMCOORD
24 1
Ti      2.73141430     2.03696753     4.25493372    -0.29082504     0.20744054     1.67059367
Ti      4.80450592     1.40037761     7.21411096     0.29082504    -0.20744054    -1.67059367
Ti      6.49923325     1.40037878     1.47954275    -0.29045583    -0.20733204    -1.67014630
Ti      1.03668697     2.03696647     9.98950204     0.29045583     0.20733204     1.67014630
Ti      2.73140212     0.31829504     1.47958876    -0.29082504     0.20744054    -1.67059367
Ti      4.80451809     3.11905015     9.98945603     0.29082504    -0.20744054     1.67059367
Ti      1.03667479     0.31829376     7.21406495     0.29045583     0.20733204    -1.67014630
Ti      6.49924542     3.11905143     4.25497972    -0.29045583    -0.20733204     1.67014630
O       2.38516722     1.21034763     5.85256567     3.83513500    -0.02984743    -0.02697345
O       5.15075299     2.22699746     5.61647901    -3.83513500     0.02984743     0.02697345
O       1.38284197     1.21036149     0.11808023    -3.83674426    -0.02961423    -0.02884702
O       6.15307830     2.22698365    11.35096412     3.83674426     0.02961423     0.02884702
O       5.15074087     0.50832492     0.11804303    -3.83513500     0.02984743    -0.02697345
O       2.38517934     2.92902022    11.35100132     3.83513500    -0.02984743     0.02697345
O       6.15306618     0.50831105     5.85260287     3.83674426     0.02961423    -0.02884702
O       1.38285398     2.92903409     5.61644181    -3.83674426    -0.02961423     0.02884702
O       0.27381142     2.09078812     3.09807508    -0.46424396     0.00774648     0.39299249
O       7.26210879     1.34655696     8.37096960     0.46424396    -0.00774648    -0.39299249
O       4.04176894     1.34652494     2.63648372    -0.46117997    -0.00764723    -0.39294698
O       3.49415127     2.09082020     8.83256079     0.46117997     0.00764723     0.39294698
O       0.27379930     0.37211558     2.63644712    -0.46424396     0.00774648    -0.39299249
O       7.26212091     3.06522956     8.83259739     0.46424396    -0.00774648     0.39299249
O       3.49413915     0.37214760     8.37100614     0.46117997     0.00764723    -0.39294698
O       4.04178106     3.06519754     3.09803848    -0.46117997    -0.00764723     0.39294698
