# total energy = -19961.81297017 eV

CRYSTAL
PRIMVEC
        7.60600008     0.00000000     0.00000000
        0.00000000     7.60600008     0.00000000
       -1.89786986    -1.89786986     4.85670466
PRIMCOORD
24 1
Ti      3.80679599     6.51322297     1.23742300     0.41282496     1.74655308     0.01139770
Ti      3.78543400     2.81180602     1.23878500     0.03464691    -1.25120005    -0.76495772
Ti      0.02401602     6.71700501     1.18889099    -0.36747300    -0.38748982     0.68606622
Ti     -0.00185302     2.90047300     1.17693000     0.07600569     0.34526277     0.08356680
Ti      5.69325023     2.92856422     3.58277981    -0.18477805    -0.65156021     0.42006956
Ti      5.70794321    -0.90382776     3.65096382     0.11666051     0.59357281    -0.22947567
Ti      1.85960622     2.82281423     3.61588482     0.24252711    -0.34648070     0.05654732
Ti      1.90495322    -0.99609680     3.60922883    -0.15103643     0.17616460     1.47016633
O       3.80444401     4.71477303     0.86848999     0.04647091    -0.82502514    -0.55353249
O       3.81575702     0.84934499     0.85221901     0.01726419     0.70743236    -0.59007739
O       0.06116299     4.79391101     0.70426602    -0.16025692     0.53793926     0.76352022
O      -0.00291899     1.06525698     0.75029402     0.14984498    -1.92171084     0.76194542
O       5.67259020     4.80561524     4.10391679     0.15375511    -0.02153274    -0.48345319
O       5.72419620     1.01906923     4.13306583    -0.20224871     0.13011124    -1.71780171
O       1.88578520     4.67198820     4.10529583    -0.25584029     0.50301389    -0.25994968
O       1.85962220     0.89995423     4.05104479     0.11305016     0.40616477     0.49182908
O       3.70420022     2.93637921     3.28569483     1.75608596    -0.31481910    -0.50352092
O       3.80208425    -0.92664879     3.23629179    -0.02105863    -0.15871786     0.13844907
O      -0.01413676     2.86930123     3.12049681    -0.16933472     0.30303444     0.91536526
O       0.00573824    -0.87430977     3.23804279     0.19851701    -0.23818271    -0.14789685
O       5.73704198     6.59774301     1.73621701     0.15024530     0.00646401    -1.15569870
O       5.68932802     2.76657999     1.60592600    -0.18500148     0.50425857     0.40134781
O       1.91256200     6.57697502     1.65471800    -0.59633649     0.07492712    -0.18641225
O       1.95407500     2.80426000     1.59946401    -1.17453410     0.08182025     0.39250630
