# total energy = -19515.83222523 eV

CRYSTAL
PRIMVEC
        5.93400000     0.00000000     0.00000000
        0.00000000     9.29699974     0.00000000
        0.00000000     0.00000000     4.64899994
PRIMCOORD
23 1
Ti      4.48162801     7.27396099     2.09164500    -0.02859042     0.03480761     0.24502854
Ti      4.55267101     2.32487601     2.11742900     1.66272583    -0.47331738     1.83345357
Ti      1.18177202     6.99623999     2.29725798    -0.65128793     0.18106949    -1.38272308
Ti      1.61427901     2.26564202     2.53935901    -1.31009273    -0.98984063    -0.25002342
Ti      2.91625301     4.53371000     0.35654201     0.68420809     0.72735250    -1.13462336
Ti      3.01164002     0.05404598     0.04110199     0.01119536     0.31207933     1.71907621
Ti      5.87550999     4.50039798     0.09397003    -0.66515235     0.08575481    -1.00378296
Ti      0.19085899     0.00243601     4.33315802    -1.57143415     0.69932515     2.80631386
O       4.58158599     5.56529702     0.97536998    -1.56023417    -0.11599099    -0.02072207
O       4.51038498     0.99221301     0.94081301    -1.08736955    -1.39662376    -1.50304201
O       1.42585799     5.64938699     0.82352601     0.87452661    -0.64734488     0.33860850
O       1.50237200     0.85528501     0.94397601    -0.09275489     0.02481964    -0.93180593
O       4.13724998     8.59939898     3.53775503     2.49267207    -2.49435460    -0.33111219
O       4.53513301     3.65458302     3.74072900    -0.41301574     0.89758273     0.73189230
O       1.43499699     8.18444299     3.74415701     1.72799691     0.30491649     0.08232444
O       1.56034098     3.57911700     3.97038399     0.49216821     0.83811721    -1.28021059
O       2.98912300     1.34550798     3.38044000    -0.21938332     1.70238948    -1.31809761
O       5.68337801     6.28922701     3.29664599     0.08290937    -0.66779493    -0.60584880
O       5.85267700     1.23061101     3.08366401     0.96910339     1.62487995    -0.19253456
O       2.78630100     7.65526098     1.53005702     1.13024169     0.64266393    -0.64178384
O       3.03705301     3.25281700     1.57294202    -1.55514724     0.32113707     0.37079821
O       5.92584999     8.17454299     1.26391801    -0.40193222    -2.44204754     1.77150539
O       0.19868002     3.10315001     1.36044200    -0.57135358     0.83041881     0.69730940
