# total energy = -19517.41206229 eV

CRYSTAL
PRIMVEC
        5.93400000     0.00000000     0.00000000
        0.00000000     9.29699974     0.00000000
        0.00000000     0.00000000     4.64899994
PRIMCOORD
23 1
Ti      4.46302002     7.02266202     2.25413099     1.28823269     0.41133141     0.05443722
Ti      4.45716499     2.28447301     2.29441799     0.84262461    -0.68698179     0.17402724
Ti      1.44584698     7.17648199     2.31169198    -1.09540785    -0.33723296     0.07036058
Ti      1.45180398     2.30537101     2.37177302    -0.53185191    -0.72192387    -0.71787335
Ti      3.05865001     4.45489403     0.14140500    -0.13548922     1.00072206    -0.41649264
Ti      2.93839702     0.01810400     4.54150103     0.57058045    -0.71901107     1.03347227
Ti      0.06980298     4.62000601     4.64600099     0.05783339     0.23499429    -0.03902036
Ti      0.01976800     0.08827603     0.04304201    -1.05697653     0.28117158     0.31799159
O       4.49193199     5.48709600     0.88299601    -1.04818773     0.88025092     0.01807538
O       4.26331800     0.89157598     0.92539999     1.36912374     0.31537009     0.33776261
O       1.60200798     5.55519799     0.80147302    -0.07245166     0.31897272     0.18408540
O       1.56653998     0.97867099     0.97555302    -0.95948386    -0.92666655    -0.99428736
O       4.48484498     8.43377999     3.75317901    -0.23905046    -0.80384747    -0.04667968
O       4.54279000     3.69161702     3.75806802    -1.28921948     0.06512247    -0.89176304
O       1.32906200     8.20953102     3.95229200     1.13485270     0.23779319    -0.90091874
O       1.30630002     3.74815198     3.56192800     1.77230886     0.71104399     0.79854791
O       2.82580397     1.29755299     3.27125300     0.59022343     1.39362379    -0.87292070
O       5.88561098     6.14315302     3.02762101     0.54805681    -1.56373190     1.64869506
O       0.01744200     1.37663303     3.26603299    -0.27664258    -0.00677846    -0.09527561
O       2.99923801     7.99946602     1.56066500    -0.90097993    -1.03403740     0.01811934
O       3.02257801     3.19643300     1.37892002    -0.61784146    -0.36286609     0.86427331
O       5.91604698     7.96541002     1.49758998    -0.08261909     0.75325946    -0.77881829
O       5.86605603     3.09985000     1.29903400     0.13236455     0.55942212     0.23420239
