# total energy = -19072.70072639 eV

CRYSTAL
PRIMVEC
        5.93400000     0.00000000     0.00000000
        0.00000000     9.29699974     0.00000000
        0.00000000     0.00000000     4.64899994
PRIMCOORD
22 1
Ti      4.33141999     7.05011700     2.30132402     2.15399235    -1.50476542     1.60717687
Ti      4.41356798     2.33039199     2.13169498     0.55104906     1.12611172     0.49708853
Ti      1.55097899     7.24480999     2.50915002    -2.09733216    -0.80833431     1.99069664
Ti      1.67821902     2.42454098     2.23230301    -1.18623391     0.22307388     0.12880872
Ti      3.01587799     4.44398901     4.42527899     0.16008131     0.90259484     0.03695114
Ti      3.01174199     0.01348100     0.17478201    -0.04260705     0.40080916    -1.97284315
Ti      5.81382200     4.64102900     4.48178300    -0.46762959     0.77536170    -0.91418975
Ti      5.91769298     0.02786801     0.32383002     0.67132171    -0.82878461    -0.52246044
O       4.32950997     5.42969599     0.83756201     0.01478462    -0.22793147     0.16863255
O       4.46822601     0.68788899     1.33052798    -0.22842126    -1.01475746    -1.56300093
O       1.55910498     0.67663101     1.24116799    -0.61403957     0.90514898    -0.50516797
O       4.39624499     8.31924301     3.83628100     0.16769847     1.62234998     0.37201897
O       4.37982902     3.92560798     3.25731701     0.75227550    -0.39269887     0.89297840
O       1.49967901     8.12487399     4.09231098    -0.00796837     2.24260211    -0.78474160
O       1.38968402     3.86703499     3.46823002     0.19821130    -0.46935403     0.01093079
O       2.89577401     6.10561102     3.23189100    -0.04549209    -0.46777537    -0.39191983
O       3.07362001     1.61619501     3.32837700    -0.64962982    -1.03474008     0.53471021
O       5.87500902     6.25737001     3.34104502     0.56101440    -1.81340153    -0.01999111
O       2.95542002     7.90118097     1.43660299    -0.28688508    -0.66877221     0.13183465
O       3.02716999     2.80050200     0.96412602    -0.09534734     1.92848801    -0.01463447
O       5.90590498     8.02318200     1.54338598     0.17179321    -1.90907283     0.48783461
O       0.03162802     2.81689702     1.16901599     0.31936430     1.01384780    -0.17071360
