# total energy = -19074.25031553 eV

CRYSTAL
PRIMVEC
        7.60600008     0.00000000     0.00000000
        0.00000000     7.60600008     0.00000000
       -1.89786986    -1.89786986     4.85670466
PRIMCOORD
22 1
Ti      3.87231300     6.58408499     1.09110200    -2.65587470     0.08516191    -0.46009651
Ti      3.66173199     2.85259400     1.38987902    -0.49996714     0.78612125    -0.54177637
Ti     -0.06144600     6.75134702     1.21213701     1.60197578     0.48811460    -0.03096304
Ti     -0.28851500     2.96347499     1.37906100     1.46297238    -0.06938433    -0.93874585
Ti      5.48793120     3.02975820     3.68575082     1.32134388     0.63129965     1.69132679
Ti      5.85459420    -0.99640478     3.47374881     0.81646491     0.67416741     1.94276895
Ti      1.77310522     2.71465024     3.65258781    -1.32610788     1.25077967     0.05829901
Ti      1.89737022    -0.83831577     3.70911680     0.15301669    -0.77773174    -0.73418932
O       3.54852701     4.61544799     0.80149398     0.44325038     1.30766381    -0.52570697
O       4.06813102     1.06952300     0.82008699    -0.53981848    -0.87875454     0.30808975
O      -0.08710898     4.80648098     0.88562099     0.01768328     0.41956640    -0.98508229
O      -0.06947198     1.07424199     0.55643099    -0.78443178     0.84952571     0.75962654
O       6.10698921     4.91186620     3.80180479    -0.79197720    -1.72901327     1.95399928
O       0.10678220    -0.50644776     3.17797080    -1.55758284    -0.47268335    -0.66342482
O       1.86284320     4.67659823     4.12653880    -0.15924442     1.37937910    -0.95506465
O       2.09859823     0.95683920     4.07272079     0.01279587    -0.41860840    -0.14523781
O       3.63729422     2.87673623     3.38265582     0.70465993    -0.46274783    -0.39962980
O      -0.23493676     2.55534222     3.15440479     0.31009778    -0.76700124     1.71949350
O       5.56640300     6.41936402     1.59493198     2.21164910     0.49356226    -0.23186911
O       5.52476898     3.41372302     1.92073498    -0.76379661    -1.14377752    -2.89860956
O       2.11600398     6.64412502     1.75047601    -0.60300542     0.23587926     0.53836735
O       1.70911800     3.16515302     1.69576199     0.62589647    -1.88151934     0.53842468
