# total energy = -4988.81908446 eV

CRYSTAL
PRIMVEC
        3.03474958     0.00000000     0.00000000
        1.17046112     4.60868996     0.00000000
       -0.00000753    -0.00006231     4.79317209
PRIMCOORD
6 1
Ti      2.10260147     2.30431373     2.39658610     0.00000000     0.00000000     0.00000000
Ti      0.00000000     0.00000000     0.00000000     0.00000000     0.00000000     0.00000000
O       1.74547887     0.89815359     0.93411867    -0.98483598     0.45670548     0.35441847
O       2.45972401     3.71047387     3.85905353     0.98483598    -0.45670548    -0.35441847
O       0.35711940     1.40613492     3.33070573     0.98509129    -0.45682401     0.35434468
O       0.81333407     3.20249264     1.46246647    -0.98509129     0.45682401    -0.35434468
