# total energy = -19517.50736217 eV

CRYSTAL
PRIMVEC
        7.60600008     0.00000000     0.00000000
        0.00000000     7.60600008     0.00000000
       -1.89786986    -1.89786986     4.85670466
PRIMCOORD
23 1
Ti      3.74389100     6.75319200     1.22071598    -0.37782684    -0.38396200    -0.46780468
Ti      3.72141700     3.03232201     1.15227198     1.37428266    -1.05525595     0.64186046
Ti     -0.03329901     6.45895198     1.30869699     0.73301947     0.69808845     0.04420242
Ti      0.20996499     2.82515102     1.02667800    -3.36536780    -1.05683461     0.23224886
Ti      5.56919224     2.83919422     3.56415182     0.99643886    -0.04211314    -0.15800515
Ti      5.55301625    -1.10609777     3.60810782     1.09245648     0.36585552     1.91981362
Ti      2.04388125     2.95769124     3.65980881    -1.29032223    -0.56423934     0.23759496
Ti      1.92621022    -0.84056478     3.68701180    -0.96735273     0.00523580    -0.52142968
O       3.69434598     4.79014999     0.82168400    -0.13740957     0.22072697    -0.15520059
O       3.80378799     1.06493201     0.67303398     0.33528946    -0.47262267     2.05636624
O       0.35144402     4.69960501     0.78339199    -0.98899911     0.60993994    -0.55586063
O      -0.22425003     0.95339801     0.80053299     0.49555564    -1.35775046     0.66507110
O       5.65519524     4.65049524     4.18997683    -0.10764107     0.29155344    -0.66420901
O       5.76102021     0.82318220     4.04243581     0.45231301     1.11148445    -1.81637579
O       1.93385720     4.72667824     4.15060382     0.16259791     1.03029593    -0.43609628
O       1.82026925     1.08292722     3.94859581    -0.50430819    -0.39759785     0.61933861
O       3.80089021     2.68479925     3.40826382     0.77405223     0.26917583    -1.43564540
O       3.74993420    -0.93368378     3.34007181     0.57976212     0.18488553    -0.82722215
O       0.17918122    -1.15939476     3.28999080    -2.69563734     0.24205094    -0.96845059
O       5.56908599     6.22607002     1.74322300     1.60525009     0.96763143    -0.56103909
O       5.83023200     3.22734902     1.71902499     0.36472783    -1.07230005     0.56144198
O       1.94250401     6.56851501     1.56081698    -0.10859290     1.05067758     0.36258662
O       1.88468399     2.93985802     1.57917001     1.57771202    -0.64492521     1.22681441
