# total energy = -4979.13566725 eV

CRYSTAL
PRIMVEC
        2.82811416     0.00000000     0.00000000
        1.89796931     4.00418786     0.00000000
       -0.00001240    -0.00005954     4.55368236
PRIMCOORD
6 1
Ti      2.36303544     2.00206418     2.27684108     0.00000000     0.00000000     0.00000000
Ti      0.00000000     0.00000000     0.00000000     0.00000000     0.00000000     0.00000000
O       1.78394086     0.78034569     0.88744560    -9.13926700     3.83624315     5.27519371
O       2.94212997     3.22378269     3.66623656     9.13926700    -3.83624315    -5.27519371
O       0.57908939     1.22169447     3.16428762     9.14223148    -3.83968251     5.28072312
O       1.31886740     2.78243378     1.38939454    -9.14223148     3.83968251    -5.28072312
