# total energy = -19518.42053268 eV

CRYSTAL
PRIMVEC
        7.60600008     0.00000000     0.00000000
        0.00000000     7.60600008     0.00000000
       -1.89786986    -1.89786986     4.85670466
PRIMCOORD
23 1
Ti      3.81921499     6.71397298     1.16441601    -0.14801512    -0.83517278     2.62904935
Ti      3.84411801     2.88058901     1.21842099     0.58015447     0.93927987     1.08553456
Ti      0.02478201     6.54514601     1.17666700    -0.53629735     0.10376359     0.24437393
Ti      0.07094002     2.76984502     1.08704998    -1.47973084     0.00640128     0.20724230
Ti      5.63786924     2.86747224     3.62100683    -0.12992175    -0.46274320     0.22475924
Ti      5.73881821    -0.98397176     3.64570782    -1.94664746     0.29148042    -0.93331722
Ti      2.04671922     2.92950023     3.66743880     0.00100942    -0.22601933     2.36676279
Ti      1.77096723    -0.82931775     3.67909081     1.99239409    -0.13463432    -0.71885860
O       3.64297298     4.81484902     0.93377199     0.23921090    -1.15760569    -0.34587418
O       3.61632901     1.02051399     0.77583301     0.13874835    -0.12714958    -0.10253075
O      -0.06614901     4.68656502     0.70832698     0.34161232     0.55866801     0.25731636
O      -0.01562602     0.79080201     0.89211400    -0.10471156     1.42662288    -1.38455294
O       5.70362824     4.76813722     3.75465081     0.13357606    -1.07124256     1.75990148
O       5.92554020     0.94434622     4.05462584     0.26015357    -0.37116870    -0.20072173
O       2.01331724     4.76474524     4.15078983    -0.26289180     0.68058797    -1.56446055
O       1.78593925     1.07022522     4.15819582    -0.47286436    -0.64590892    -0.47337729
O       3.82037023     2.63425721     3.22973481     0.20865410     0.43114845    -0.06314786
O       3.75792621    -0.66212176     3.18615384    -0.53576308    -0.41943424     0.52742961
O      -0.03321878    -0.98527576     3.15161581     0.18414608     0.05052631     0.70966922
O       5.63470201     6.55052198     1.66843401     0.41632681     0.39182084    -0.59450072
O       5.81189600     2.92580599     1.70471398    -0.00831007    -0.73785263    -1.40972816
O       1.77252899     6.44472802     1.65348200     1.19103184     0.66723083    -0.07399818
O       1.72634002     2.65638200     1.93156999    -0.06186488     0.64140126    -2.14697092
