# total energy = -4986.36874287 eV

CRYSTAL
PRIMVEC
        3.79900368     0.00000000     0.00000000
        0.00000000     3.20517574     0.00000000
        0.00000000    -0.00007240     5.03167276
PRIMCOORD
6 1
Ti      1.89950174     1.60255162     2.51583654     0.00000000     0.00000000     0.00000000
Ti      0.00000000     0.00000000     0.00000000     0.00000000     0.00000000     0.00000000
O       1.89950174     0.62462743     0.98059896     0.00000000    -1.08311078    -0.03974387
O       1.89950174     2.58047586     4.05107406     0.00000000     1.08311078     0.03974387
O       0.00000000     0.97789534     3.49643646     0.00000000     1.08270583    -0.03944459
O       0.00000000     2.22720789     1.53523661     0.00000000    -1.08270583     0.03944459
