# total energy = -19075.24069823 eV

CRYSTAL
PRIMVEC
        7.60600008     0.00000000     0.00000000
        0.00000000     7.60600008     0.00000000
       -1.89786986    -1.89786986     4.85670466
PRIMCOORD
22 1
Ti      3.77292600     6.71756900     1.14486000     0.38638861    -0.62743476     0.60893824
Ti      3.80589798     2.80023900     1.16259400    -0.51874057     0.71310832     2.10952382
Ti      0.02167902     6.82376302     1.22877302    -0.74559140    -0.46325254    -1.13567880
Ti     -0.05110900     2.91419801     1.34286199     0.33739777     0.89213045    -0.91392493
Ti      5.69520824     3.08441120     3.64104683    -2.03154789     0.01420406     0.75247501
Ti      5.65386521    -0.75538878     3.57803383     0.28267284    -2.00680487     1.16329374
Ti      1.83420222     2.85719525     3.66745182     1.46543756    -0.57367015     0.35031448
Ti      1.68275725    -1.04746678     3.59962479     2.31468250     0.80735806     1.45488343
O       3.47102699     4.66009499     0.80922399     0.63289579     1.14153629    -0.17664128
O       3.93111602     0.98628998     0.98592098    -0.59266007    -1.65588592    -1.09131980
O      -0.15753099     4.74223600     0.68624298     0.64448736    -0.14407028     0.73361391
O      -0.17683998     1.16743402     0.72109201    -0.00020260    -0.84915444     0.05960488
O       5.56121125     4.90097923     4.09767282    -0.16446890     0.84992295     0.50581331
O      -0.03646677    -1.23906276     3.39443583    -1.50560309     0.71132578    -1.36047352
O       2.23657225     4.73515921     4.15332184    -0.84947892     0.68395792    -1.13404178
O       1.73904821     0.83468525     4.12769579     0.29997200     0.25682579    -1.11730106
O       3.77373321     2.85980324     3.25359282    -0.11212971    -0.40673402     0.22427098
O      -0.08547678     3.11018923     3.25768283     1.42431172     0.01609126     0.92283972
O       5.57180400     6.64926402     1.71896901     0.74582820     0.24514115    -0.29929657
O       5.71152299     2.78929799     1.73239799    -1.15047962     0.38114356    -0.85304915
O       1.93315202     6.86604598     1.70486802    -0.87677196    -0.30914802    -0.14406385
O       1.82782500     2.61929001     1.78107500     0.01360088     0.32340890    -0.65978080
