# total energy = -4982.24732536 eV

CRYSTAL
PRIMVEC
        3.53050708     0.00000000     0.00000000
        0.00000000     5.53177530     0.00000000
        0.00000000    -0.00007179     5.53177530
PRIMCOORD
6 1
Ti      1.76525348     2.76585169     2.76588759     0.00000000     0.00000000     0.00000000
Ti      0.00000000     0.00000000     0.00000000     0.00000000     0.00000000     0.00000000
O       1.76525348     1.07804752     1.07806152     0.00000000    -0.93497430    -0.93497430
O       1.76525348     4.45365586     4.45371366    -0.00000000     0.93497430     0.93497430
O       0.00000000     1.68777506     3.84395023    -0.00000000     0.93605622    -0.93605622
O       0.00000000     3.84392832     1.68782495     0.00000000    -0.93605622     0.93605622
