# total energy = -19517.98213886 eV

CRYSTAL
PRIMVEC
        5.93400000     0.00000000     0.00000000
        0.00000000     9.29699974     0.00000000
        0.00000000     0.00000000     4.64899994
PRIMCOORD
23 1
Ti      4.41347802     7.00344399     2.25544102     0.97640867     0.27566118    -0.23091857
Ti      4.47721800     2.35184198     2.32516901     0.29486322    -0.33409313    -0.19420835
Ti      1.42807001     6.97262900     2.30046199    -0.92898054     0.37353438     0.18948934
Ti      1.46918703     2.28773999     2.31865902    -0.29780585     0.09411141     0.20971365
Ti      2.98687399     4.50841999     0.07117699    -0.17454120     0.43486369     0.58954980
Ti      2.95542002     0.08640999     0.02440798    -0.25785423    -0.52250801    -0.32141244
Ti      0.00733800     4.65060102     4.63324200     0.21690606     0.83194836     0.00743023
Ti      5.91338701     0.01268898     4.57317901     0.14707590    -0.58521132    -0.41999731
O       4.34117701     5.60442000     0.94141400     0.13029276    -0.77570494    -0.62436230
O       4.57107097     0.93003600     0.86903203    -0.91552929    -0.16592723     0.28137803
O       1.50593098     5.61457401     1.03646498     0.38397872    -1.32314803    -1.27080112
O       1.43268798     0.94853699     0.89275298     0.90169264    -0.04042238     0.27335465
O       4.57018598     8.30163702     3.63622099    -0.90159957     0.99460592     1.43823142
O       4.46712500     3.71848800     3.78283701    -0.26863436     0.68599295     0.03047813
O       1.56915300     8.48032801     3.67952399     0.13153254    -0.34305934     0.32320399
O       1.45111202     3.68244600     3.81614301     0.32264657     0.49451460    -0.17432369
O       3.07468900     1.51819403     3.28381800    -1.01211771    -0.90440336     0.17117897
O       0.01856200     6.02120201     3.27675602    -0.04388386    -0.43008787     0.55966869
O       5.90386801     1.40505498     3.20888502     0.55685179    -0.12879895     0.11946995
O       2.93571499     7.85896702     1.40238898     0.34516687     0.16864335     0.33472459
O       3.00073002     3.24695001     1.36879898    -0.44735746    -0.75725547     0.91692103
O       5.92088001     7.74179702     1.48741898     0.12168213     1.59697730    -1.54642399
O       5.91760397     3.29017998     1.53539800     0.71920544     0.35976689    -0.66234496
