# total energy = -19928.02359499 eV

CRYSTAL
PRIMVEC
        4.93379169     0.00000000     0.00000000
        2.24913182     4.74498599     0.00000000
        0.00000000     0.00000000     9.07440891
PRIMCOORD
24 1
Ti      3.12109557     2.81187428     3.36654096     4.90407565    -4.58752646     1.30462271
Ti      4.06182778     1.93311165     5.70786800    -4.90407565     4.58752646    -1.30462271
Ti      5.17137568     1.93311325     1.17062727   -10.24253574     2.61151287     2.48945125
Ti      2.01154776     2.81187285     7.90378183    10.24253574    -2.61151287    -2.48945125
Ti      1.99652978     0.43938136     1.17066364     4.90449834    -4.58658286    -1.30498780
Ti      5.18639360     4.30560471     7.90374546    -4.90449834     4.58658286     1.30498780
Ti      0.88698184     0.43937961     5.70783163    10.24306462    -2.61024660     2.48964639
Ti      6.29594158     4.30560645     3.36657738   -10.24306462     2.61024660    -2.48964639
O       2.35353372     1.67079021     4.63060141    -1.45794125     0.09691340    -1.37700083
O       4.82938963     3.07419572     4.44380760     1.45794125    -0.09691340     1.37700083
O       1.69731507     1.67080938     0.09342614     2.19648319    -0.06339674    -2.07497718
O       5.48560834     3.07417664     8.98098262    -2.19648319     0.06339674     2.07497718
O       3.70482381     0.70170270     0.09339666     1.45772090    -0.09695171    -1.37696664
O       3.47809954     4.04328327     8.98101205    -1.45772090     0.09695171     1.37696664
O       4.36104252     0.70168357     4.63063084    -2.19678992     0.06319800    -2.07538033
O       2.82188079     4.04330242     4.44377812     2.19678992    -0.06319800     2.07538033
O       1.54730549     2.88616949     2.45122424     0.13888796    -3.65629440    -3.20354610
O       5.63561780     1.85881645     6.62318477    -0.13888796     3.65629440     3.20354610
O       3.52722301     1.85877229     2.08600910     2.60936009    -3.01953964    -4.31441041
O       3.65570034     2.88621363     6.98839971    -2.60936009     3.01953964     4.31441041
O       0.42273967     0.51367642     2.08598012     0.13903528    -3.65586631     3.20245699
O       6.76018363     4.23130952     6.98842869    -0.13903528     3.65586631    -3.20245699
O       2.53113452     0.51372057     6.62321365    -2.60934980     3.01945916    -4.31428391
O       4.65178883     4.23126536     2.45119525     2.60934980    -3.01945916     4.31428391
