# total energy = -19957.70317819 eV

CRYSTAL
PRIMVEC
        5.93400000     0.00000000     0.00000000
        0.00000000     9.29699974     0.00000000
        0.00000000     0.00000000     4.64899994
PRIMCOORD
24 1
Ti      4.38586201     6.98604999     2.29843101     3.04595465    -1.20319728    -0.72653103
Ti      4.49115600     2.26862002     2.32941100     0.59679775     0.95494689     0.02790291
Ti      1.55816199     6.94574298     2.34873999    -3.59688518    -1.58864281    -0.44489409
Ti      1.49092600     2.46970399     2.33807501    -0.15870269     0.47620756    -0.83961925
Ti      2.96968600     4.84643301     4.64186198     0.00240578    -2.64420806     2.16027973
Ti      3.05746301     9.06066601     4.61163299    -0.18287158     3.32935049    -1.78791495
Ti      5.92632000     4.63479302     4.43643098    -0.72790194    -1.38945655     2.57462601
Ti      0.01849898     9.14478201     0.21602799     1.95448444     2.84469402     0.43374604
O       4.50160000     5.64597602     0.86137203    -1.20710176     0.77333824     0.57057120
O       4.44009500     0.75631298     0.88756101    -1.29825923     0.55995177     0.17521612
O       1.36094303     5.47770200     0.98004198     1.37531290     2.10112197     0.81281471
O       1.28793900     1.09031601     1.07681702    -0.05515893    -3.35714541    -2.66971084
O       4.62152199     8.25206698     3.78466199    -2.52390379     0.49750479    -0.45870271
O       4.37423498     3.76336498     3.89637501    -0.90286686    -0.38544450    -1.62409294
O       1.35814701     8.48479601     3.72491502     2.28652171    -0.81305228    -0.24379518
O       1.46028701     3.87226802     3.77201603     1.39500242    -0.60159465    -0.73950457
O       3.02653498     5.97213902     2.98178998    -0.77205217     0.18243886     1.68945683
O       2.81960498     1.46857397     3.08565101     2.31777168    -1.33497845     1.57216049
O       0.15203299     6.13810499     3.45199698    -0.15897342     1.92745340    -2.88961789
O       0.05097601     1.55824698     3.21660100    -2.56659260    -0.40008437     0.66018472
O       3.00241201     7.85459501     1.29052202    -0.75224773    -0.66357858     1.49836363
O       2.82672898     3.41242400     1.44932499     1.41429881     0.33206555    -0.72252448
O       5.89155798     7.71286902     1.45891099     1.21711467     1.09337642    -0.43547202
O       5.79939001     3.30194401     1.31996597    -0.70214796    -0.69106702     1.40705704
