# total energy = -4932.18053059 eV

CRYSTAL
PRIMVEC
        4.82619518     0.00000000     0.00000000
       -0.00000667     2.32372346     0.00000000
       -2.41312463    -1.16192665     5.19936562
PRIMCOORD
6 1
Ti     -0.00020618     1.74286964     1.29984113    -0.03399720    -0.02939929    55.52792885
Ti      2.41327001    -0.58107298     3.89952384     0.03399720     0.02939929   -55.52792885
O       0.00005136     0.58091972     0.84693405     0.03388921     0.02921211   -45.53335707
O       2.41301233     0.58087684     4.35243097    -0.03388921    -0.02921211    45.53335707
O      -0.00001971    -0.58094614     3.44661676    -0.00110120    -0.00042989    -0.32232621
O       2.41308335     1.74274270     1.75274826     0.00110120     0.00042989     0.32232621
