# total energy = -19516.25515931 eV

CRYSTAL
PRIMVEC
        5.17600016     0.00000000     0.00000000
        0.00000000     5.50899976     0.00000000
        0.00000000     0.00000000     9.26300011
PRIMCOORD
23 1
Ti      1.99868898     3.19616100     3.42106700     0.01208907    -0.81195828     1.60653255
Ti      3.23152602     2.28815100     5.93351798     0.92800635    -0.01899815    -2.15553759
Ti      4.24020099     2.22298801     1.52258001     0.40864692    -0.82598391    -0.89872944
Ti      0.84770999     3.36140898     7.83268798    -0.30229217     0.26359679     1.26473717
Ti      1.96668201     0.03143001     1.43460598    -0.89017075     2.70813394    -2.00979661
Ti      3.36413499     5.31223197     7.91139902    -1.00712462     0.20690755     0.44680904
Ti      0.63107202     0.54517100     5.77774798    -1.01299394     0.68113947    -2.08965201
Ti      4.64652202     4.82163598     3.41333900    -0.33543190     0.98333600     1.67827073
O       1.65413601     2.02055098     4.80036099    -0.50390890     0.11830010    -0.30551967
O       3.58361898     3.62271703     4.50972399    -0.43529744    -0.42182048    -0.15292207
O       4.90809698     3.26220598     0.08477599     0.09936058    -0.78509590    -0.38632845
O       3.22091999     1.13441701     0.09570102     0.70523226    -0.68859156     0.01002371
O       1.71666100     4.87713900     8.89304102     0.58013519    -0.41849347     1.22065765
O       4.14513398     0.76086899     4.86534200     1.47505889    -0.86780369    -0.96659348
O       1.14045900     4.74529899     4.39670199    -0.68229518     0.44854583    -0.04842983
O       0.18571798     3.16637102     2.73842602     0.67903142    -0.53006448    -0.92160713
O       5.01329800     2.25831101     6.64728902     0.50220194    -1.14112080     1.27637502
O       2.77462301     1.44584899     2.51407301    -0.62696348     1.28363067    -0.42856655
O       2.65333500     3.69130200     7.00703499    -0.59063635    -0.96605843     0.97576075
O       0.14456202     0.52633398     2.07391698     0.43860157     0.47153664    -1.10665129
O       5.16315200     4.69609497     7.05264600    -1.55093602     2.35924102    -0.27765739
O       2.29763899     0.73825402     6.61417100     1.51442737    -0.04545841     2.75320848
O       3.08617199     4.31736599     2.06861499     0.59525920    -2.00291993     0.51561590
