# total energy = -19518.07590307 eV

CRYSTAL
PRIMVEC
        5.93400000     0.00000000     0.00000000
        0.00000000     9.29699974     0.00000000
        0.00000000     0.00000000     4.64899994
PRIMCOORD
23 1
Ti      4.46955298     6.93156199     2.33068299     0.59568446     0.57187038    -0.39392709
Ti      4.41790999     2.33008501     2.29608098     0.29009228    -0.26770285     0.31121004
Ti      1.46420599     7.02325703     2.35553400    -0.57374728     0.07807363    -0.92412295
Ti      1.46138701     2.38963301     2.29082398    -0.07570230    -0.89306222     0.08128957
Ti      2.92767398     4.60799501     0.03853802     0.38424174    -0.60788589     0.32788648
Ti      2.97638099     9.26267001     4.63427299    -0.23443327     0.30892922     0.62266125
Ti      5.93339499     4.68204098     0.05599600    -0.53099882    -0.08553421    -0.50786582
Ti      5.92583300     9.26816800     4.58103999     0.04388978     0.69705949     0.64588706
O       4.43740302     5.53109900     0.98815199    -0.11679369     0.20550398    -0.28975315
O       4.31526299     0.97178899     0.83793498     1.07225686    -0.23567203    -0.24681751
O       1.55604401     5.61374701     0.94092102     0.28009197    -0.20976739    -0.60300053
O       1.51132102     0.87664599     0.92461998    -0.28965493    -0.22282757    -0.77953023
O       4.48018399     8.29825098     3.73129801    -0.15647637     0.33512619     0.52906612
O       4.53739202     3.67232702     3.86336800    -0.71698324     0.66176440    -1.03568573
O       1.40052998     8.30971999     3.71805000     0.58121840     0.69700833     0.65789155
O       1.51206800     3.71244300     3.72959099     0.38969377     0.89937788     0.25532452
O       3.02134201     1.43518098     3.10108902    -0.27219431    -0.48240418     0.82802022
O       0.08118902     6.03136100     3.24841900    -0.27767359    -0.16725289     0.08742834
O       0.00562399     1.44553301     3.20054000    -0.17646156    -0.39179950    -0.00913668
O       3.04134300     7.95660801     1.50066799    -0.32553083    -0.89027797    -0.05515378
O       2.93602699     3.32050702     1.37732799     0.38084531    -0.48551342     0.70529191
O       5.91674501     7.82538999     1.44487599     0.09019459     0.69328897    -0.65241227
O       0.08584499     3.27953097     1.36796701    -0.36155920    -0.20830237     0.44544867
