# total energy = -19956.97107816 eV

CRYSTAL
PRIMVEC
        5.44980551     0.00000000     0.00000000
        0.86519904     5.73534887     0.00000000
        0.00000000     0.00000000     9.78165371
PRIMCOORD
24 1
Ti      2.48800850     3.39876237     3.62892379     0.38860747    -1.30057528     0.73976425
Ti      3.82699597     2.33658633     6.15273014    -0.38860747     1.30057528    -0.73976425
Ti      5.05258838     2.33658827     1.26186406    -0.64726672    -0.27588359     0.14980718
Ti      1.26241611     3.39876065     8.51978999     0.64726672     0.27588359    -0.14980718
Ti      2.05540910     0.53108804     1.26190329     0.38860747    -1.30057528    -0.73976425
Ti      4.25959538     5.20426083     8.51975076    -0.38860747     1.30057528     0.73976425
Ti      0.82981668     0.53108594     6.15269092     0.64726672     0.27588359     0.14980718
Ti      5.48518781     5.20426293     3.62896302    -0.64726672    -0.27588359    -0.14980718
O       2.02954912     2.01951377     4.99150306     0.94333244     1.15024950    -0.42609572
O       4.28545536     3.71583494     4.79015082    -0.94333244    -1.15024950     0.42609572
O       1.30469154     2.01953695     0.10070760    -0.37346701     0.06440564     0.49245308
O       5.01031300     3.71581181     9.68094606     0.37346701    -0.06440564    -0.49245308
O       3.85285595     0.84816044     0.10067587    -0.94333244    -1.15024950    -0.42609572
O       2.46214853     4.88718826     9.68097778     0.94333244     1.15024950     0.42609572
O       4.57771359     0.84813731     4.99153485     0.37346701    -0.06440564     0.49245308
O       1.73729084     4.88721145     4.79011909    -0.37346701     0.06440564    -0.49245308
O       0.72426713     3.48856429     2.64226875     0.09593175     0.41969572     0.46134144
O       5.59073735     2.24678436     7.13938519    -0.09593175    -0.41969572    -0.46134144
O       3.26184543     2.24673102     2.24858934     0.64005863     0.50592361    -0.06115860
O       3.05315905     3.48861763     7.53306443    -0.64005863    -0.50592361     0.06115860
O       0.29166772     0.62088979     2.24855805     0.09593175     0.41969572    -0.46134144
O       6.02333676     5.11445885     7.53309566    -0.09593175    -0.41969572     0.46134144
O       2.62055963     0.62094314     7.13941636    -0.64005863    -0.50592361    -0.06115860
O       3.69444484     5.11440551     2.64223752     0.64005863     0.50592361     0.06115860
