# total energy = -19960.50126061 eV

CRYSTAL
PRIMVEC
        5.93400000     0.00000000     0.00000000
        0.00000000     9.29699974     0.00000000
        0.00000000     0.00000000     4.64899994
PRIMCOORD
24 1
Ti      4.50822800     6.94961402     2.32700198    -1.63516848    -0.38648349    -0.12203129
Ti      4.40808899     2.31017499     2.25487400     1.15659396     0.54400346     0.30566983
Ti      1.42961499     7.00842498     2.34204701     1.51883913    -1.03143724    -0.77369459
Ti      1.51885301     2.34533802     2.38296702    -1.10898662     0.46709197    -0.20892895
Ti      3.00523602     4.64762901     4.60539198     0.88199670     2.00753763     0.13902757
Ti      2.90232697     0.07331402     0.01980202     1.13230551    -1.93759229     0.33783048
Ti      0.04490201     4.55602498     4.64498201    -0.75417914     1.84218119     0.67360640
Ti      0.00202299     0.03645698     0.00145899    -1.74299545    -1.00981425    -0.71236476
O       4.51655900     5.50134400     0.95947302    -0.25900069    -0.57944382    -0.83884174
O       4.43942300     0.80321698     1.05589600    -0.32387170     0.01108634    -0.95034410
O       1.42033899     5.65815498     0.87265800    -0.05305422    -1.64243854    -0.37289623
O       1.38438902     0.86625400     0.96043999     1.42739499     0.54306218     0.31551047
O       4.52804998     8.43232301     3.72578297    -0.52210640     0.41594268     0.42604249
O       4.36158801     3.69191600     3.68737598     0.47165465     0.56425862     0.53934385
O       1.55066900     8.40905498     3.65542701    -0.33509149     1.13918758     1.25621113
O       1.52207099     3.87170598     3.67508398    -0.11800725    -1.63034406    -0.63678201
O       3.06970098     6.08395100     3.26395099    -0.68500153    -0.26929256     0.37857425
O       2.96173897     1.48267602     3.35504399    -0.74635527     0.03771398    -0.57329400
O       5.89908102     5.98284100     3.22146398     0.49607808     0.53444564    -0.12714084
O       5.79370702     1.48808701     3.23513702     1.92232456    -0.43294514     0.89475734
O       2.96890499     7.66828599     1.29925398    -0.13940115     1.66291301     0.20826278
O       2.97555701     3.18301000     1.34301101    -1.22706432    -0.48997017     0.58149196
O       0.01674100     7.91616098     1.48702099     0.23587155     0.17440956    -0.68172594
O       5.93271400     3.23149703     1.42081202     0.40722458    -0.53407257    -0.05828410
