# total energy = -19518.08729798 eV

CRYSTAL
PRIMVEC
        7.60600008     0.00000000     0.00000000
        0.00000000     7.60600008     0.00000000
       -1.89786986    -1.89786986     4.85670466
PRIMCOORD
23 1
Ti      3.85938001     6.72074602     1.14045201    -0.07399843    -0.89418425    -0.39980206
Ti      3.80704603     2.81855398     1.20189198    -0.26407605     1.11220539    -0.04623128
Ti      0.10740600     6.62798998     1.17847398    -0.50946917     0.36058218     0.97639530
Ti     -0.02796300     2.75927698     1.24737598     0.55111077    -0.52320657    -1.12990796
Ti      5.47605721     2.83379122     3.81538983     1.61468861    -0.06956456     0.16155276
Ti      5.67798924    -0.88064175     3.52137683     0.74115958    -0.36659240     1.28480901
Ti      2.01178321     2.94009721     3.63491583    -1.68402666    -0.90741283     0.71647724
Ti      1.94488922    -0.92366878     3.54397582    -0.91663076     0.87392703    -0.24630792
O       3.84440901     4.70087900     0.73048099     0.17685237     0.48480225     0.83061601
O       3.79815802     1.01679599     0.62753902    -0.29053451    -0.49455085     1.67930405
O      -0.07725803     4.62354901     1.02160700    -0.05198053     1.09707804    -1.33284238
O       0.18385602     0.87317898     0.75365302     0.09150405     1.01627621     0.08238743
O       5.56294520     4.71681724     4.18937781     0.62282992    -0.73744100    -1.83778486
O       5.51374823     0.93590421     4.03553079     0.61067528    -0.27128465     0.49907985
O       1.91465023     4.82441924     4.02920479    -0.65322988    -1.07157603     0.35911151
O       1.81349324     0.99536124     3.95745683     0.01223460    -0.09203961     0.29003340
O       3.74854622     2.78273022     3.45819481     0.58037019     0.20816662    -2.07599097
O       3.79278221    -1.07858378     3.35658881     0.35133906     0.71509527    -1.65674930
O      -0.04191676    -0.80417379     3.17560882     0.51219196    -0.64188206    -0.14591273
O       5.70696598     6.77717399     1.52984497    -0.98438012    -0.34029797     0.67255404
O       5.83584101     2.70426403     1.79395300    -1.65449264     0.09586670     0.73084586
O       1.94671801     6.38767800     1.52846599     0.51820552     0.90848113     0.67267720
O       1.84329402     2.95978001     1.69454298     0.69965734    -0.46244856    -0.08431447
