# total energy = -19518.03841529 eV

CRYSTAL
PRIMVEC
        7.60600008     0.00000000     0.00000000
        0.00000000     7.60600008     0.00000000
       -1.89786986    -1.89786986     4.85670466
PRIMCOORD
23 1
Ti      3.69288799     6.61459402     1.32976702     1.67988718    -0.83292846    -1.13431997
Ti      3.78808698     2.83175500     1.11213500     0.43506810     1.24945504     1.13472209
Ti     -0.00881900     6.56324800     1.25575799    -1.55091263    -0.25213095    -0.50418760
Ti      0.03850902     2.83433902     1.08024000    -0.76609621     0.47972483     0.78313646
Ti      5.54735522     2.97077023     3.57136879     0.67680176    -0.96418461     1.27207253
Ti      5.78579222    -0.97438375     3.73951682    -1.04531015     1.06439597    -1.38649515
Ti      2.03240921     2.92145922     3.58220681    -0.51147951     1.30507239     1.51597672
Ti      1.86701523    -0.87667075     3.64294382     0.64028206    -1.13932925     0.63160510
O       4.02430699     4.71000800     0.87267298    -1.09228293    -0.07961578    -0.39388312
O       3.54214598     0.96368300     0.73197300     0.17093549     0.01763623     0.53459065
O      -0.25384701     4.67798902     0.66872600     0.68446854     2.02800645     1.18620125
O       0.15551001     0.93001399     0.85007600    -0.03468625    -0.95897555    -0.15106342
O       5.75804322     4.79749724     3.98533182     0.36253185    -1.02212316     0.58174393
O       5.76130825     0.99922122     4.12343983     0.35962522    -0.99758454    -2.00928444
O       2.02981021     4.76045023     4.09931083    -0.99198853    -0.06244698     0.51002401
O       2.01585824     1.07227123     3.87057883    -1.05563210    -1.76214246     1.28971159
O       3.79955123     2.86363523     3.30231380     0.11059604     0.04160098    -1.62575953
O       3.78139723    -0.92976676     3.24086479     0.42150218     0.45158770     0.26094701
O      -0.03274776    -0.91438580     3.18603583     0.64316607     0.23517144     0.70090252
O       5.72348599     6.57214998     1.64772000    -0.16876367     0.80955790     0.17724755
O       5.74653102     2.69299202     1.73484702     0.62431396    -0.21778846    -1.23302774
O       1.84922101     6.21593601     1.79465998     0.24893636     0.71044929    -1.50172304
O       1.82478901     3.03709403     1.68348799     0.15903770    -0.10340775    -0.63913689
