# total energy = -19517.93418231 eV

CRYSTAL
PRIMVEC
        7.60600008     0.00000000     0.00000000
        0.00000000     7.60600008     0.00000000
       -1.89786986    -1.89786986     4.85670466
PRIMCOORD
23 1
Ti      3.88492202     6.57704900     1.25330298    -1.44441467     0.34353242     0.66639445
Ti      3.83303598     2.82016099     1.19209400     0.30659182     0.25421355    -0.35600947
Ti     -0.02666201     6.64870701     1.31193698     1.21864267     0.11032274    -1.16398666
Ti      0.07100199     2.86255899     1.01162201    -1.15551152    -0.01396135     1.13125599
Ti      5.53428724     2.92910223     3.66286179    -0.05355147    -0.58398465    -1.47217334
Ti      5.78626721    -1.00548377     3.62087083    -2.67015693     0.10426419     1.20441495
Ti      1.87932024     2.87595521     3.56146682     0.14316011    -0.63010434     1.12921916
Ti      1.88285520    -1.00636675     3.72270882     1.47241193     0.83961616    -0.07173458
O       3.73250300     4.77565302     0.65759301    -0.07227528    -0.49825581     1.29359061
O       4.09333600     0.95168200     0.81169001    -0.41903752    -0.69389215     0.15640001
O       0.16235301     4.77060900     0.64924699     0.21338519     0.59111021     2.16366742
O      -0.09427002     0.87668599     0.71871499     0.12788543    -0.35630618     1.05722310
O       5.69956522     4.71619323     4.02430684     0.44363245     1.11031126     0.25877983
O       5.57249124     0.95754422     4.08510179     0.55249762    -0.14063811    -1.92227262
O       1.52248920     4.70023224     4.17772183     0.40458689     1.02994934    -1.56767108
O       1.95303321     0.97324422     4.10886079    -0.87320866     0.06757941    -0.68926828
O       3.73388521     2.93708720     3.36244284    -0.65939436     0.08210461    -1.27779298
O       3.82122025    -0.76093477     3.26915180     0.65219810    -1.26760858    -0.16348828
O      -0.02936378    -0.81260178     3.31383081     0.93936266     0.05935574    -0.74508618
O       5.71640999     6.35225699     1.68076998     1.00789852     0.29182212    -0.44183936
O       5.63210099     3.03360701     1.65511599     2.16285803    -0.13536632     0.37866373
O       2.02243200     6.71968402     1.83860799    -2.09245400    -0.43520231    -1.24289050
O       1.88263300     2.80663802     1.37028703    -0.20510675    -0.12886220     1.67460382
