# total energy = -19517.21376699 eV

CRYSTAL
PRIMVEC
        5.17600016     0.00000000     0.00000000
        0.00000000     5.50899976     0.00000000
        0.00000000     0.00000000     9.26300011
PRIMCOORD
23 1
Ti      1.84404201     3.11332598     3.43116201    -0.16276066     0.54905388     2.19145205
Ti      3.24025798     2.26777598     5.93635003     2.16463878     0.73017634    -2.80211705
Ti      4.39421401     2.01038401     1.41553401     0.98980926     0.28027297    -1.60076017
Ti      0.93219901     3.39812102     7.69141998    -2.95566364     0.36709505     1.67122976
Ti      2.05006902     0.26443400     1.45243402    -0.15983680    -0.96460422    -2.17128277
Ti      3.18457202     5.31010098     7.88569698    -0.05897624     0.41779902     1.51801535
Ti      0.71581002     0.54124498     5.93810499    -1.01729617    -0.41370659    -3.02300575
Ti      4.52111902     4.82465901     3.37751899     0.67543599     0.65924781     3.03619165
O       1.67684697     1.85733801     4.84123999     0.33519227    -0.09401242    -1.15985206
O       3.53361998     3.42605201     4.42954199    -0.06721946     0.27645823     0.16308822
O       0.11176700     2.71441201     9.14779700    -0.16315661    -0.50326612     0.95651681
O       3.42287498     0.90745903     0.19386102     0.16004763    -0.41262004    -0.76130136
O       1.85479002     4.67200302     9.09537602    -0.11173093    -0.36913882    -0.25515097
O       4.37764298     0.71860201     4.86234199    -1.36792432    -0.16810367    -0.71495438
O       1.04020298     4.57729002     4.49995500    -0.55194663     0.25000697    -0.16932803
O       0.01627998     3.32054798     2.47127300     1.84075037     0.23013644     0.24437882
O       5.07353901     2.27013997     6.58840398    -0.78477322     0.17271623     0.47946078
O       2.66091102     1.81385298     2.24690999     0.17138543     1.63585419     0.75878193
O       2.50779702     3.80486100     6.84852799     1.60789935    -0.10898885    -0.51876114
O       0.31511399     0.68053501     2.07163897    -0.45338824    -0.98047487     0.26636484
O       4.96003901     4.97012502     7.19581702     0.28832156    -1.07712396     1.21535552
O       2.19875402     1.16629301     7.07154302     0.16686029    -0.42965669     1.20505876
O       2.89375102     4.51056501     2.41581099    -0.54566774    -0.04712037    -0.52938134
