# total energy = -4989.35138400 eV

CRYSTAL
PRIMVEC
        3.04124202     0.00000000     0.00000000
        0.94359800     4.67081055     0.00000000
       -0.00000628    -0.00006239     4.78941574
PRIMCOORD
6 1
Ti      1.99241681     2.33537408     2.39470798     0.00000000     0.00000000     0.00000000
Ti      0.00000000     0.00000000     0.00000000     0.00000000     0.00000000     0.00000000
O       1.70451308     0.91026007     0.93338665    -0.59224818     0.18415867     0.09694168
O       2.28032054     3.76048810     3.85602931     0.59224818    -0.18415867    -0.09694168
O       0.28790115     1.42508874     3.32809548     0.59226977    -0.18477214     0.09730395
O       0.65569055     3.24565930     1.46132047    -0.59226977     0.18477214    -0.09730395
