# total energy = -19070.95466389 eV

CRYSTAL
PRIMVEC
        7.60600008     0.00000000     0.00000000
        0.00000000     7.60600008     0.00000000
       -1.89786986    -1.89786986     4.85670466
PRIMCOORD
22 1
Ti      4.43103898     6.54056800     1.21633402    -3.49471233     0.02048116    -0.40548549
Ti      3.40067600     2.56387103     1.25806398    -0.18785772     0.45874128    -0.46295866
Ti      0.20872899     6.79098901     0.94182200    -2.41073150     0.38874606     0.29624853
Ti      7.11577203     3.01759300     0.97082202     1.29928072    -3.29270968     2.21580015
Ti      5.50558524     2.75744422     3.65200180     0.58684809     2.72901207    -2.68670250
Ti     -1.07076577    -0.60073477     3.84324281     0.19648146     0.25911819     0.10604442
Ti      1.70083722     2.74460823     3.94099783     0.36946895     0.21709015    -0.01796893
Ti      1.91253622    -0.86077575     3.74972883     0.69769738    -1.92638613     1.98081049
O       3.67623801     4.49887299     0.93981800     0.01904751     2.65927499     0.27053389
O       3.68427299     0.79549300     0.81635402     0.37961375    -1.39382691     2.32486279
O       7.17533198     4.78634499     0.71068600     0.41202689     2.25809610     0.92682364
O       7.25356999     1.04745398     0.21558898    -1.98505307    -2.38229148     3.61040996
O      -1.54446376     4.75904024     4.05803284     0.85273059     0.07262418    -1.67827176
O       5.15674620     1.06879421     3.97220881     0.26981475    -0.97636805    -1.49638954
O       2.20736923     4.68478624     4.31655079    -0.11410329    -0.46383567    -1.76115207
O       2.28504520     0.82499421     4.33986280    -0.20989851     1.05344383    -2.07024661
O       3.52368420     2.97698023     3.07474181    -0.69183552    -0.63541599     0.74850780
O      -0.02265678     2.87391121     3.13995883     1.03796656    -0.69231812     0.05658872
O       5.95877100    -0.69560000     2.01045000     2.35381445     0.09235123    -0.19959687
O       5.55333502     2.56743398     1.71308699    -0.81600083     0.38555635     0.01627329
O       1.65625700    -0.75209301     2.03892402     0.28823363    -0.15976738    -2.86925526
O       1.58866303     2.35257600     0.45631102     1.14716829     1.32838408     1.09512375
