# total energy = -19957.19671873 eV

CRYSTAL
PRIMVEC
        7.60600008     0.00000000     0.00000000
        0.00000000     7.60600008     0.00000000
       -1.89786986    -1.89786986     4.85670466
PRIMCOORD
24 1
Ti      3.97160401     6.61520300     1.21203599     1.28910455     0.85481653    -0.67712032
Ti      3.68490398     2.76732100     1.21279202     2.16796785    -1.62785266    -1.20132243
Ti      0.16284202     6.75509799     1.24876200    -1.04913132    -1.10296561    -1.73638051
Ti     -0.04414402     2.85056503     1.33026101    -2.31081865     1.02699617    -1.18661366
Ti      5.61851024     2.90430821     3.63981982     1.95697404     0.55849035     2.69405688
Ti      5.63093220    -0.80107477     3.65569482     2.00300169    -1.33893281     0.29889214
Ti      1.99836824     2.91080323     3.62161782    -0.52187089    -3.06515977     0.62130885
Ti      1.95147721    -1.09692978     3.49440181    -1.02043240     3.04985553     0.84967458
O       3.90595200     4.48645701     0.80167898    -0.79466940     4.15116432    -0.42439724
O       4.15609700     0.84275398     0.77193102    -1.09923211    -0.75498981    -1.60579619
O      -0.28907598     4.79214001     0.98750402     1.70613918    -1.66771403    -0.51442240
O      -0.25415198     0.91581299     0.85185599     0.50203045     1.94225036    -1.28548392
O       5.80953524     4.71921325     4.22315879    -0.04785288     0.57730775    -2.14256816
O       5.49357324     0.92154525     4.02328283     0.59598810     0.66490372     0.96149138
O       1.48742120     4.65729422     3.61435380     1.39856340     1.10342815     1.71332079
O       2.00520421     0.85136020     4.08960382    -0.75953732    -0.75869709     0.10390320
O       3.86436021     2.78459424     3.28865679    -4.70795646     0.66583086     0.05926678
O       3.88199520    -0.90236876     2.99405281    -1.59672970    -1.23082534     2.39477857
O      -0.18104276     2.69049520     3.10137779     1.99031561    -0.33870414     2.76443597
O      -0.05047578    -0.70123579     3.01521980     1.55458545    -0.54763721     4.36755102
O       5.79482998     6.68222700     1.65668299    -2.54502129    -0.77302276    -0.92037968
O       5.59499498     2.85627898     1.84458002    -0.71141062    -0.10725438    -3.15629770
O       2.02791703    -0.57978998     1.64203801    -0.10873482    -1.37366251    -0.34787039
O       1.78293500     2.61432099     1.79690200     2.10872755     0.09237489    -1.63002756
