# total energy = -19516.94648877 eV

CRYSTAL
PRIMVEC
        5.93400000     0.00000000     0.00000000
        0.00000000     9.29699974     0.00000000
        0.00000000     0.00000000     4.64899994
PRIMCOORD
23 1
Ti      4.59567502     7.23475499     2.25500598     0.53916182     0.30857877    -0.08895506
Ti      4.30383599     2.23309900     2.34652899     0.44147323    -0.02006130     0.28294924
Ti      1.53580700     6.92843201     2.21286998     0.28811381     1.16198582    -0.02823741
Ti      1.35472398     2.27234903     2.28108998    -0.28176884     0.57145874     0.12556990
Ti      3.02052998     4.50893498     0.12825801     0.86076298    -1.00521995    -0.40697699
Ti      2.87585001     9.13978198     4.58242098     0.56185798     0.58760502     0.12176415
Ti      0.06543002     4.74111002     0.04339502    -1.18596754    -1.86908008    -0.89432000
Ti      5.89980002     0.11412898     0.04700999     0.22113578     0.27012405    -0.01673352
O       4.36354798     5.62328702     0.96871801    -0.02387913     0.06983324    -0.56348781
O       4.40361802     0.79724903     0.96187803     1.02695632     0.86151862     0.16242385
O       1.52514001     5.49453200     0.89172002     0.55346873     0.86522307     0.32213235
O       1.58157602     1.00367398     0.86907103    -1.04405828    -1.01930857    -0.48230108
O       4.61811801     8.16996000     3.94409399    -1.41685475     0.62234655    -1.07562449
O       4.40446200     3.65724002     3.78174601    -0.42038272     1.01566532    -0.39591558
O       1.51661702     8.28867202     3.74858803     0.17933708     0.39313699     0.31024048
O       1.34416001     3.77502101     3.56644400     0.84955039     1.12572040     1.23954755
O       2.91745102     1.22860802     3.24068201     0.53295286     1.29629722    -0.71373567
O       0.17620999     6.35691402     3.17726001    -1.83398811    -2.84091192     1.31346988
O       5.90186100     1.45396101     3.29748400    -0.32921343    -0.53692599    -0.40656638
O       2.96865601     8.10565797     1.59235700     0.95994049    -1.53409555     0.29162980
O       2.90597602     3.13744000     1.35080902     0.41664511     0.32257638     0.40086701
O       0.25874402     7.95421898     1.34449202    -1.14694409    -0.12660194     0.25661213
O       5.85832400     3.31094299     1.35134798     0.25170029    -0.51986440     0.24564689
