# total energy = -19934.52649960 eV

CRYSTAL
PRIMVEC
        6.84493263     0.00000000     0.00000000
        0.00002892     5.38462310     0.00000000
        0.00000000     0.00000000    10.89818720
PRIMCOORD
24 1
Ti      2.48097601     3.19092271     4.04314972     0.44766394    -0.48181771     0.78930865
Ti      4.36398559     2.19370058     6.85503754    -0.44766394     0.48181771    -0.78930865
Ti      5.90332411     2.19370245     1.40590037     0.44897777     0.48179689    -0.78954211
Ti      0.94163750     3.19092108     9.49228702    -0.44897777    -0.48179689     0.78954211
Ti      2.48096167     0.49861128     1.40594406     0.44773567    -0.53414457    -0.78973725
Ti      4.36399993     4.88601219     9.49224333    -0.44773567     0.53414457     0.78973725
Ti      0.94162316     0.49860922     6.85499385    -0.44931896    -0.53391599    -0.78919989
Ti      5.90333845     4.88601425     4.04319342     0.44931896     0.53391599     0.78919989
O       2.16647461     1.89601737     5.56126152     0.87274021     1.17378102    -0.90172375
O       4.67848705     3.48860592     5.33692575    -0.87274021    -1.17378102     0.90172375
O       1.25605215     1.89603909     0.11220297    -0.87250650     1.17353342    -0.90217087
O       5.58890958     3.48858426    10.78598400     0.87250650    -1.17353342     0.90217087
O       4.67847271     0.79629431     0.11216761    -0.87225916    -1.17435412    -0.90102570
O       2.16648895     4.58832898    10.78601935     0.87225916     1.17435412     0.90102570
O       5.58889524     0.79627265     5.56129687     0.87221750    -1.17448293    -0.90183585
O       1.25606636     4.58835070     5.33689039    -0.87221750     1.17448293     0.90183585
O       0.24870984     3.27523300     2.94387225    -1.24454140     0.23567075     0.13998094
O       6.59625183     2.10939028     7.95431501     1.24454140    -0.23567075    -0.13998094
O       3.67118353     2.10934006     2.50525604    -1.24391457    -0.23542778    -0.13945669
O       3.17377814     3.27528329     8.39293104     1.24391457     0.23542778     0.13945669
O       0.24869550     0.58292145     2.50522123    -1.24440976     0.23557150    -0.13964978
O       6.59626617     4.80170190     8.39296585     1.24440976    -0.23557150     0.13964978
O       3.17376380     0.58297167     7.95434976     1.24393128     0.23521772    -0.13968063
O       3.67119786     4.80165161     2.94383744    -1.24393128    -0.23521772     0.13968063
