# total energy = -19074.30021456 eV

CRYSTAL
PRIMVEC
        7.60600008     0.00000000     0.00000000
        0.00000000     7.60600008     0.00000000
       -1.89786986    -1.89786986     4.85670466
PRIMCOORD
22 1
Ti      3.66167701     6.81293299     1.10116600    -0.23928752     0.72708536     0.29460405
Ti      3.87773802     2.88225899     1.48175202     0.87115178    -0.03963177    -2.11663627
Ti      0.02865902     6.69693299     1.25770901     0.42603581    -0.05820620    -1.29410638
Ti     -0.12263302     2.83143998     1.31468600     0.09870109    -1.03221191     0.19206611
Ti      5.92639223     2.84059220     3.93072480     1.03943029     1.40765431    -1.66353676
Ti      5.77274123    -0.75561479     3.45472780    -0.11121388    -1.62117525     3.01707344
Ti      1.91712922     2.78758124     3.98483080    -1.44529476    -1.10963146    -1.02564840
Ti      1.81175421    -0.76692177     3.60209779     0.70971704     0.61155100     0.78612717
O       3.81691201     4.90895499     0.93491999    -0.40605242    -1.49983250     0.53233091
O       3.29209401     1.17537797     0.86733501     0.58791561     0.75892951     0.39526381
O      -0.03040398     4.71340701     1.12284501     0.35393048    -0.38443894    -1.34325175
O      -0.18877202     0.82055801     0.66580600    -0.00724511     2.22356386     0.43897258
O       5.95124123     4.73029422     4.04086680    -0.23476495    -0.73545148    -0.09500487
O       5.61037224     1.00490723     4.06645983    -0.90006590    -1.20883700     0.77039484
O       1.85263421     5.06060623     4.07842479     0.39057823    -1.25067400    -0.34379262
O       2.54587524     1.04134621     4.20467283    -1.40556708    -1.34135530     0.19278550
O       3.53270223     3.02901920     3.20935683     1.68543742     0.80044385     0.30758427
O       0.12142422     2.19125325     3.47676782     0.28671308     2.11904873    -0.48182902
O       5.45218099     6.62969399     1.69351399     0.68369001     0.54454648    -0.72856940
O       5.75654502     2.99556499     1.89624799    -1.08867799    -0.69033014     0.46597817
O       1.91856498     6.42626698     1.62553599    -0.25455499     1.10643558     0.38290939
O       0.00708224    -0.74799278     3.11699381    -1.04057623     0.67251728     1.31628524
