# total energy = -39036.42537061 eV

CRYSTAL
PRIMVEC
        7.60600008     0.00000000     0.00000000
        0.00000000     7.60600008     0.00000000
       -3.79573973    -3.79573973     9.71340985
PRIMCOORD
46 1
Ti      1.97436746     5.10824346     5.92931562     0.53092503    -1.97450794     0.44181750
Ti      3.93285702     6.51466900     1.24726602    -0.51407247    -0.08418463     0.52937363
Ti      1.70855146     1.07404042     6.22804163     0.86140935    -0.53542138    -0.52899567
Ti      3.75221099     2.41099098     1.34813202    -0.04573609     0.40970570    -0.86450239
Ti     -1.81932954     4.70673646     5.96759064    -0.75437120     0.58624311     0.55057315
Ti      0.06074098     6.57769798     1.30854897     0.76762267    -0.36263572    -0.22020504
Ti     -1.98824858     1.03462947     6.07198964    -0.71918384    -0.98577932     0.65387934
Ti      0.04881999     2.72198898     1.22500602    -0.09196171     0.38135902    -1.04987514
Ti      3.78027246     0.92858643     8.46418165    -0.89499594    -0.99837798     0.33352825
Ti      5.72927201     2.96745599     3.50969498    -0.32218454    -0.25533044     0.50606245
Ti      3.75313646    -2.95475055     8.42726963     0.32413113     1.07594125    -0.69361267
Ti      5.76869900    -0.77187402     3.75312800     0.01559529    -0.62897254    -0.25469434
Ti     -0.13658155     0.78566047     8.50510361     0.54969255     1.30038913     0.66911622
Ti      1.87760799     3.05262501     3.64849600    -0.00882917     0.04808170    -0.38110525
Ti     -0.02519053    -2.95873558     8.36834664     0.04213114    -0.50370295     0.91846807
Ti      1.99788601    -0.64934002     3.65017302    -0.24631872    -0.55005019    -0.66818574
O       1.83594946    -0.75742955     5.51072663     0.03902113     0.69580711     0.91077481
O       3.80266603     0.64020298     0.77265800     0.31284244     2.25436414    -0.76118977
O      -1.89164357     2.80865445     5.61714761     0.33886972     1.20775842     0.04797372
O       0.10081599     4.56914900     0.88891401    -0.29909937     1.68807460    -1.17906927
O      -2.01818757    -0.88546256     5.66573862     0.11109484     0.00065589    -0.48324545
O       0.16981901     0.80168300     0.75824797    -0.74917757     0.63557899    -0.15247496
O       3.69506847     2.86020642     8.75147161    -0.38842801    -1.78438868     1.13005219
O       5.78255699     4.76914900     4.07175800    -0.53907414     0.21438200    -0.37220614
O       3.79671246    -1.00407954     8.77863660    -0.00396927    -0.29784287     1.06730491
O       5.78467698     1.07329899     4.00542500     0.02462835    -0.85384876     0.13410391
O       0.03368144     2.68234445     8.94545264     0.08369535    -0.17402107    -0.39987122
O       2.11620401     4.86069201     3.94130798    -0.46255783     0.32355957     1.09226262
O      -0.22162054    -0.88926755     9.15253462     0.21205953    -2.19464176     0.34873788
O       1.83383201     1.26653198     4.32199799     0.00684376     0.02703105    -1.42606650
O       1.77436847     0.71213743     8.04210664     0.98662058     0.45972344     1.79636308
O       3.73103897     2.86031702     3.18963201     1.46306186     0.14778064     0.76189554
O       1.84244744    -2.79704653     7.87482562    -0.13734170    -0.20794499     1.17477784
O       3.82223198    -0.86226702     3.24157499     0.79648795     0.41937536     0.27004769
O      -2.01188057     0.94521042     8.08942763     0.05769121     0.27532154    -0.06643682
O      -0.01968698     3.08322098     3.15251002    -0.06172038    -0.47291835     0.30961647
O      -1.89733254    -3.06281257     7.98781761     0.97141970     0.43138268    -0.07477491
O       0.06819301    -0.97745298     3.27286101     0.13769368     0.68342981     0.14294979
O       3.80339047     4.72845945     6.40668964    -0.05999106     0.06910819    -0.18294588
O       5.82620601     6.52842698     1.78940398    -1.41209023    -0.29050288    -1.13007456
O       3.68631143     1.03239047     6.49529762     0.35434443     0.37184002    -0.08341382
O       5.65708499     2.59028401     1.61553999     0.47921241     0.35623496    -0.16961291
O       0.06406246     4.93811244     6.27332063    -1.18537207    -0.75714697     0.89085235
O       1.94225799     6.69273000     1.65677798     0.37009501    -0.85048653    -0.10044430
O      -0.11338057     0.70653243     6.67572865    -0.58096669     0.90187030    -2.62951394
O       1.90318598     2.68404400     1.71446100    -0.35974735    -0.20229293    -0.80801523
