# total energy = -19891.66773767 eV

CRYSTAL
PRIMVEC
        6.66636942     0.00000000     0.00000000
        0.00002183     3.04072834     0.00000000
        0.00000000     0.00000000    10.14569322
PRIMCOORD
24 1
Ti      2.41625111     1.80193281     3.76397983    -1.42026943     1.08256930    -2.28909436
Ti      4.25013985     1.23879558     6.38171354     1.42026943    -1.08256930     2.28909436
Ti      5.74932172     1.23879661     1.30882628    -1.41548975    -1.08253151     2.29241520
Ti      0.91706924     1.80193187     8.83686719     1.41548975     1.08253151    -2.29241520
Ti      2.41624034     0.28156869     1.30886698    -1.41966059     1.07478246     2.28940495
Ti      4.25015062     2.75915975     8.83682649     1.41966059    -1.07478246    -2.28940495
Ti      0.91705847     0.28156756     6.38167284     1.41697224     1.07355732     2.29201231
Ti      5.74933249     2.75916088     3.76402053    -1.41697224    -1.07355732    -2.29201231
O       2.10995562     1.07069213     5.17726963     8.15600119    -2.35259806     5.52191994
O       4.55643534     1.97003621     4.96842374    -8.15600119     2.35259806    -5.52191994
O       1.22328328     1.07070440     0.10445559    -8.15026275    -2.35366995     5.52073338
O       5.44310772     1.97002399    10.04123749     8.15026275     2.35366995    -5.52073338
O       4.55642462     0.44967204     0.10442268    -8.15515659     2.35235406     5.51985380
O       2.10996634     2.59105635    10.04127040     8.15515659    -2.35235406    -5.51985380
O       5.44309700     0.44965977     5.17730254     8.15283231     2.35446263     5.52215468
O       1.22329391     2.59106862     4.96839083    -8.15283231    -2.35446263    -5.52215468
O       0.24221780     1.84954333     2.74060488     3.99443084    -1.57933181     1.09991680
O       6.42417316     1.19118501     7.40508849    -3.99443084     1.57933181    -1.09991680
O       3.57541099     1.19115668     2.33227406     3.99793989     1.58120949    -1.09689267
O       3.09097997     1.84957171     7.81341916    -3.99793989    -1.58120949     1.09689267
O       0.24220708     0.32917916     2.33224169     3.99458897    -1.58103208    -1.09810648
O       6.42418388     2.71154923     7.81345154    -3.99458897     1.58103208     1.09810648
O       3.09096925     0.32920749     7.40512082    -3.99739995    -1.58013400    -1.09789180
O       3.57542171     2.71152090     2.74057250     3.99739995     1.58013400     1.09789180
