# total energy = -19948.22334590 eV

CRYSTAL
PRIMVEC
        5.74688130     0.00000000     0.00000000
        0.30566146     6.10877722     0.00000000
        0.00000000     0.00000000    10.28887009
PRIMCOORD
24 1
Ti      2.26410268     3.62005557     3.81709742     0.06410148    -0.93663549     0.63261143
Ti      3.78843984     2.48872142     6.47177279    -0.06410148     0.93663549    -0.63261143
Ti      5.08084063     2.48872351     1.32729657    -0.02569536     0.39685223    -0.41927689
Ti      0.97170195     3.62005372     8.96157376     0.02569536    -0.39685223     0.41927689
Ti      2.11127207     0.56566720     1.32733780     0.06410148    -0.93663549    -0.63261143
Ti      3.94127045     5.54310997     8.96153252    -0.06410148     0.93663549     0.63261143
Ti      0.81887133     0.56566493     6.47173150     0.02569536    -0.39685223    -0.41927689
Ti      5.23367125     5.54311224     3.81713871    -0.02569536     0.39685223     0.41927689
O       1.92655272     2.15100421     5.25033165     1.22736977     1.21146544    -0.11614397
O       4.12598980     3.95777278     5.03853856    -1.22736977    -1.21146544     0.11614397
O       1.16217982     2.15102887     0.10592968    -1.00771032     0.81708223     0.21567244
O       4.89036275     3.95774818    10.18294024     1.00771032    -0.81708223    -0.21567244
O       3.97315918     0.90338422     0.10589631    -1.22736977    -1.21146544    -0.11614397
O       2.07938333     5.20539277    10.18297360     1.22736977     1.21146544     0.11614397
O       4.73753214     0.90335963     5.25036508     1.00771032    -0.81708223     0.21567244
O       1.31501032     5.20541748     5.03850513    -1.00771032     0.81708223    -0.21567244
O       0.39471811     3.71570446     2.77928054     0.34173136     0.05167405     0.45225927
O       5.65782447     2.39307253     7.50958972    -0.34173136    -0.05167405    -0.45225927
O       3.20198742     2.39301561     2.36518728     0.46456457     0.48803978    -0.10221990
O       2.85055515     3.71576138     7.92368276    -0.46456457    -0.48803978     0.10221990
O       0.24188750     0.66131591     2.36515444     0.34173136     0.05167405    -0.45225927
O       5.81065508     5.44746108     7.92371559    -0.34173136    -0.05167405     0.45225927
O       2.69772454     0.66137282     7.50962250    -0.46456457    -0.48803978    -0.10221990
O       3.35481803     5.44740417     2.77924765     0.46456457     0.48803978     0.10221990
