# total energy = -19962.17842249 eV

CRYSTAL
PRIMVEC
        5.14987374     0.00000000     0.00000000
        0.00002823     5.48102301     0.00000000
        0.00000000     0.00000000     9.21714161
PRIMCOORD
24 1
Ti      1.86659826     3.24804916     3.41949386    -0.00400835     0.03747024    -0.03989171
Ti      3.28330370     2.23297390     5.79764801     0.00400835    -0.03747024     0.03989171
Ti      4.44144498     2.23297578     1.18904024    -0.00326325    -0.03764585     0.03991331
Ti      0.70845699     3.24804749     8.02810174     0.00326325     0.03764585    -0.03991331
Ti      1.86658426     0.50753777     1.18907720    -0.00400835     0.03747024     0.03989171
Ti      3.28331771     4.97348545     8.02806477     0.00400835    -0.03747024    -0.03989171
Ti      0.70844298     0.50753572     5.79761105     0.00326325     0.03764585     0.03991331
Ti      4.44145899     4.97348749     3.41953083    -0.00326325    -0.03764585    -0.03991331
O       1.62997749     1.92996143     4.70343691    -0.07475022    -0.07467283    -0.00743795
O       3.51992448     3.55106168     4.51370496     0.07475022     0.07467283     0.00743795
O       0.94500937     1.92998350     0.09489564     0.07429642    -0.07405885    -0.00729936
O       4.20489265     3.55103961     9.12224597    -0.07429642     0.07405885     0.00729936
O       3.51991047     0.81055013     0.09486573     0.07475022     0.07467283    -0.00743795
O       1.62999150     4.67047293     9.12227587    -0.07475022    -0.07467283     0.00743795
O       4.20487865     0.81052805     4.70346681    -0.07429642     0.07405885    -0.00729936
O       0.94502327     4.67049506     4.51367506     0.07429642    -0.07405885     0.00729936
O       0.18712397     3.33386891     2.48977995    -0.03126180     0.02237760    -0.01619796
O       4.96277800     2.14715415     6.72736192     0.03126180    -0.02237760     0.01619796
O       2.76206497     2.14710307     2.11882028    -0.03147417    -0.02250025     0.01620336
O       2.38783700     3.33391999     7.09832143     0.03147417     0.02250025    -0.01620336
O       0.18710997     0.59335735     2.11879085    -0.03126180     0.02237760     0.01619796
O       4.96279200     4.88766571     7.09835086     0.03126180    -0.02237760    -0.01619796
O       2.38782299     0.59340843     6.72739130     0.03147417     0.02250025     0.01620336
O       2.76207898     4.88761463     2.48975052    -0.03147417    -0.02250025    -0.01620336
