# total energy = -19923.29314412 eV

CRYSTAL
PRIMVEC
        6.28853929     0.00000000     0.00000000
        0.00003447     6.69290749     0.00000000
        0.00000000     0.00000000    11.25510257
PRIMCOORD
24 1
Ti      2.27931346     3.96621079     4.17556286     0.04979946    -0.88799714     0.62952867
Ti      4.00926030     2.72669677     7.07954003    -0.04979946     0.88799714    -0.62952867
Ti      5.42347301     2.72669907     1.45194361     0.04997892     0.88803494    -0.62956004
Ti      0.86510075     3.96620874     9.80315941    -0.04997892    -0.88803494     0.62956004
Ti      2.27929635     0.61975717     1.45198875     0.04979946    -0.88799714    -0.62952867
Ti      4.00927741     6.07315058     9.80311427    -0.04979946     0.88799714     0.62952867
Ti      0.86508364     0.61975468     7.07949490    -0.04997892    -0.88803494    -0.62956004
Ti      5.42349012     6.07315307     4.17560799     0.04997892     0.88803494     0.62956004
O       1.99037453     2.35668657     5.74339281     1.40558225     1.29705466     0.01486252
O       4.29819923     4.33622105     5.51171008    -1.40558225    -1.29705466    -0.01486252
O       1.15395616     2.35671352     0.11587759    -1.40531460     1.29725881     0.01414570
O       5.13461766     4.33619410    11.13922497     1.40531460    -1.29725881    -0.01414570
O       4.29818213     0.98976724     0.11584107    -1.40558225    -1.29705466     0.01486252
O       1.99039163     5.70314031    11.13926149     1.40558225     1.29705466    -0.01486252
O       5.13460056     0.98974029     5.74342933     1.40531460    -1.29725881     0.01414570
O       1.15397314     5.70316733     5.51167356    -1.40531460     1.29725881    -0.01414570
O       0.22849812     4.07100575     3.04028406     0.49508178    -0.28704706     0.33279497
O       6.06007564     2.62190180     8.21481883    -0.49508178     0.28704706    -0.33279497
O       3.37277280     2.62183943     2.58730316     0.49468737     0.28726741    -0.33298832
O       2.91580096     4.07106813     8.66779953    -0.49468737    -0.28726741     0.33298832
O       0.22848101     0.72455194     2.58726722     0.49508178    -0.28704706    -0.33279497
O       6.06009275     5.96835561     8.66783548    -0.49508178     0.28704706     0.33279497
O       2.91578385     0.72461432     8.21485470    -0.49468737    -0.28726741    -0.33298832
O       3.37278991     5.96829324     3.04024812     0.49468737     0.28726741     0.33298832
