# total energy = -19960.60862875 eV

CRYSTAL
PRIMVEC
        5.32584948     0.00000000     0.00000000
        0.00002651     5.12847479     0.00000000
        0.00000000     0.00000000     9.10094199
PRIMCOORD
24 1
Ti      1.93038002     3.03912937     3.37638465    -0.18833929     0.59557750    -0.91475822
Ti      3.39549597     2.08934532     5.72455765     0.18833929    -0.59557750     0.91475822
Ti      4.59321194     2.08934709     1.17405015    -0.18256588    -0.59483368     0.91523439
Ti      0.73266410     3.03912786     7.92689230     0.18256588     0.59483368    -0.91523439
Ti      1.93036681     0.47489207     1.17408666    -0.18855295     0.58945801     0.91448414
Ti      3.39550923     4.65358277     7.92685580     0.18855295    -0.58945801    -0.91448414
Ti      0.73265085     0.47489021     5.72452119     0.18223472     0.58907312     0.91461090
Ti      4.59322514     4.65358469     3.37642116    -0.18223472    -0.58907312    -0.91461090
O       1.68567434     1.80582309     4.64414115     0.07322684    -0.51479032     0.42278568
O       3.64020170     3.32265159     4.45680115    -0.07322684     0.51479032    -0.42278568
O       0.97730028     1.80584383     0.09369930    -0.07386114    -0.51490448     0.42263887
O       4.34857581     3.32263091     9.00724279     0.07386114     0.51490448    -0.42263887
O       3.64018845     0.75841415     0.09366980    -0.07336286     0.51421362     0.42247149
O       1.68568759     4.37006054     9.00727230     0.07336286    -0.51421362    -0.42247149
O       4.34856256     0.75839346     4.64417071     0.07365776     0.51516313     0.42278645
O       0.97731338     4.37008128     4.45677164    -0.07365776    -0.51516313    -0.42278645
O       0.19351664     3.11942910     2.45839154     0.34365866    -0.13286618     0.20789922
O       5.13235940     2.00904564     6.64255076    -0.34365866     0.13286618    -0.20789922
O       2.85644610     2.00899790     2.09210855     0.34293592     0.13308061    -0.20818487
O       2.46942989     3.11947684     7.00883365    -0.34293592    -0.13308061     0.20818487
O       0.19350339     0.55519166     2.09207945     0.34317966    -0.13350638    -0.20845149
O       5.13237260     4.57328309     7.00886269    -0.34317966     0.13350638     0.20845149
O       2.46941669     0.55523939     6.64257980    -0.34311924    -0.13285692    -0.20803318
O       2.85645935     4.57323530     2.45836250     0.34311924     0.13285692     0.20803318
