# total energy = -19942.87246703 eV

CRYSTAL
PRIMVEC
        5.30515236     0.00000000     0.00000000
        2.41842131     5.10213547     0.00000000
        0.00000000     0.00000000     9.75742893
PRIMCOORD
24 1
Ti      3.35601674     3.02352073     3.61993652     2.74843394    -3.97057974     1.15366264
Ti      4.36755675     2.07861468     6.13749247    -2.74843394     3.97057974    -1.15366264
Ti      5.56061901     2.07861640     1.25873900    -5.90634140     0.57644129     1.47394251
Ti      2.16295458     3.02351920     8.49869014     5.90634140    -0.57644129    -1.47394251
Ti      2.14680621     0.47245307     1.25877811     2.74843394    -3.97057974    -1.15366264
Ti      5.57676731     4.62968249     8.49865104    -2.74843394     3.97057974     1.15366264
Ti      0.95374392     0.47245119     6.13745336     5.90634140    -0.57644129     1.47394251
Ti      6.76982966     4.62968436     3.61997568    -5.90634140     0.57644129    -1.47394251
O       2.53068142     1.79654861     4.97914130     0.41232642     1.35857064    -1.23954498
O       5.19289207     3.30558679     4.77828774    -0.41232642    -1.35857064     1.23954498
O       1.82506997     1.79656922     0.10045822     1.25839374    -0.74406056     0.00092431
O       5.89850359     3.30556628     9.65697056    -1.25839374     0.74406056    -0.00092431
O       3.98368152     0.75451903     0.10042652    -0.41232642    -1.35857064    -1.23954498
O       3.73989198     4.34761642     9.65700220     0.41232642     1.35857064     1.23954498
O       4.68929303     0.75449846     4.97917295    -1.25839374     0.74406056     0.00092431
O       3.03428042     4.34763701     4.77825604     1.25839374    -0.74406056    -0.00092431
O       1.66376935     3.10340805     2.63572499     0.44909321    -0.10198644    -0.01068885
O       6.05980409     1.99872737     7.12170405    -0.44909321     0.10198644     0.01068885
O       3.79271291     1.99867988     2.24302054     1.88393540    -0.39890398    -1.36833133
O       3.93086058     3.10345552     7.51440829    -1.88393540     0.39890398     1.36833133
O       0.45455879     0.55234024     2.24298937     0.44909321    -0.10198644     0.01068885
O       7.26901465     4.54979518     7.51443945    -0.44909321     0.10198644    -0.01068885
O       2.72165002     0.55238771     7.12173511    -1.88393540     0.39890398    -1.36833133
O       5.00192347     4.54974770     2.63569382     1.88393540    -0.39890398     1.36833133
