# total energy = -19943.50100974 eV

CRYSTAL
PRIMVEC
        4.99169227     0.00000000     0.00000000
        1.80420585     4.99692995     0.00000000
        0.00000000     0.00000000     9.07830933
PRIMCOORD
24 1
Ti      2.87841915     2.96117598     3.36798803     3.07617541    -2.94391704     1.15833280
Ti      3.91747915     2.03575383     5.71032141    -3.07617541     2.94391704    -1.15833280
Ti      5.04004807     2.03575553     1.17113044    -6.10866261     0.73137216     1.98124115
Ti      1.75585025     2.96117443     7.90717909     6.10866261    -0.73137216    -1.98124115
Ti      1.97631635     0.46271114     1.17116684     3.07620292    -2.94337865    -1.15806077
Ti      4.81958196     4.53421878     7.90714270    -3.07620292     2.94337865     1.15806077
Ti      0.85374735     0.46270930     5.71028501     6.10931387    -0.73089008     1.98083569
Ti      5.94215097     4.53422067     3.36802443    -6.10931387     0.73089008    -1.98083569
O       2.21519371     1.75950392     4.63259177    -0.79371064     0.29164497    -1.07441530
O       4.58070458     3.23742589     4.44571767     0.79371064    -0.29164497     1.07441530
O       1.55127207     1.75952408     0.09346631     1.35033051    -0.70569763    -0.55370193
O       5.24462629     3.23740578     8.98484288    -1.35033051     0.70569763     0.55370193
O       3.67860177     0.73896095     0.09343685     0.79387725    -0.29159972    -1.07444873
O       3.11729653     4.25796887     8.98487234    -0.79387725     0.29159972     1.07444873
O       4.34252347     0.73894078     4.63262123    -1.34997416     0.70577888    -0.55322499
O       2.45337478     4.25798904     4.44568821     1.34997416    -0.70577888     0.55322499
O       1.27877996     3.03941598     2.45227784    -0.12170193    -1.61642128    -1.70325723
O       5.51711834     1.95751384     6.62603160     0.12170193     1.61642128     1.70325723
O       3.38398462     1.95746729     2.08690573     1.88620980    -1.91323159    -2.59323669
O       3.41191368     3.03946252     6.99140355    -1.88620980     1.91323159     2.59323669
O       0.37667715     0.54095103     2.08687673    -0.12175386    -1.61665036     1.70384062
O       6.41922115     4.45597878     6.99143256     0.12175386     1.61665036    -1.70384062
O       2.50981086     0.54099758     6.62606050    -1.88593392     1.91316371    -2.59350126
O       4.28608743     4.45593224     2.45224888     1.88593392    -1.91316371     2.59350126
