# total energy = -19960.18962549 eV

CRYSTAL
PRIMVEC
        7.60600008     0.00000000     0.00000000
        0.00000000     7.60600008     0.00000000
       -1.89786986    -1.89786986     4.85670466
PRIMCOORD
24 1
Ti      3.82257701     6.83902402     1.27778197     0.74519853    -1.66285542     0.20837385
Ti      3.79127802     2.95066901     1.19854901     0.88214762     1.01113014    -0.65927326
Ti      0.08749798     6.47824600     1.29503998    -1.35831430     0.91275559    -1.13004037
Ti      0.07484302     2.80046501     1.21952199    -1.11729489    -0.90265886    -0.86867426
Ti      5.67102320     2.86845524     3.58092181    -0.25144267    -0.46215391    -0.60132083
Ti      5.63351321    -1.09855578     3.62452279    -1.41885198     1.03167507     0.10846743
Ti      1.95168724     3.00510621     3.60568080    -0.40754006    -0.43334983     1.99045702
Ti      1.81476422    -0.91749376     3.66051981     2.11690186     0.17973766     0.42416790
O       3.83001502     4.91447701     0.78031699    -0.80174148    -1.83679087    -0.71918307
O       4.06789400     1.02768900     0.86839998    -1.29556625    -0.18657423    -1.14055618
O       0.20835402     4.64558501     0.67030501    -0.21356594     0.85779824     0.29698387
O      -0.01324203     0.84567298     0.81081898     0.47733191    -0.63801897     0.37652303
O       5.22226724     4.74539625     3.96276379     1.48671550    -1.48399039     1.36639991
O       5.56730922     0.83972121     4.00937779     0.83215970     1.06171199     0.50032606
O       2.12346421     4.85393124     4.00177479    -0.89258759     0.49487635     0.36476563
O       1.93154623     1.03490121     4.11203183    -0.92925796    -0.68568261    -0.57679661
O       3.76042921     2.89669521     3.13292882     0.59552736    -0.25309923     0.81258537
O       3.76744023    -0.83686577     3.17146584    -1.07563915     0.63172697     0.45666023
O      -0.02936876     3.16514021     3.17681783    -0.12526162    -0.46261799    -0.10669439
O      -0.06454280    -1.18174779     3.18829981     0.63672596     0.43205785     0.32208247
O       5.56123898     6.37524202     1.65713099     2.54933689     0.59667459     0.11521375
O       5.65600398     2.85613700     1.59179602     1.22203833     0.19935467     0.44055072
O       1.91236001     6.38543201     1.70185901    -1.05030606     1.29631727    -0.52438363
O       1.90980202     2.60800197     1.72571501    -0.60671398     0.30197618    -1.45663435
