# total energy = -4990.41504659 eV

CRYSTAL
PRIMVEC
        3.89822692     0.00000000     0.00000000
       -0.00000868     3.89822692     0.00000000
       -1.94914403    -1.94914837     4.97500452
PRIMCOORD
6 1
Ti     -0.00017167     2.92381784     1.24375100    -0.00009873     0.00009873    -0.00000000
Ti      1.94924577    -0.97473940     3.73125320     0.00009873    -0.00009873     0.00000000
O       0.00003894     0.97455011     0.81038753    -0.00021932    -0.00063609    -0.35477174
O       1.94903505     0.97452822     4.16461672     0.00021932     0.00063609     0.35477174
O      -0.00002202    -0.97453318     3.29788974    -0.00063609    -0.00021932    -0.35477174
O       1.94909595     2.92361146     1.67711452     0.00063609     0.00021932     0.35477174
