# total energy = -4984.52882051 eV

CRYSTAL
PRIMVEC
        3.56759229     0.00000000     0.00000000
        0.00000000     3.00993661     0.00000000
        0.00000000    -0.00006799     4.72517493
PRIMCOORD
6 1
Ti      1.78379605     1.50493426     2.36258761     0.00000000     0.00000000     0.00000000
Ti      0.00000000     0.00000000     0.00000000     0.00000000     0.00000000     0.00000000
O       1.78379605     0.58657905     0.92086705     0.00000000    -2.63269697    -2.28475794
O       1.78379605     2.42328952     3.80430813     0.00000000     2.63269697     2.28475794
O       0.00000000     0.91832811     3.28345556     0.00000000     2.63326956    -2.28705496
O       0.00000000     2.09154041     1.44171966     0.00000000    -2.63326956     2.28705496
