# total energy = -4979.51142003 eV

CRYSTAL
PRIMVEC
        4.53848149     0.00000000     0.00000000
        0.00000000     2.69732161     0.00000000
        0.00000000    -0.00010768     6.14949352
PRIMCOORD
6 1
Ti      2.26924075     1.34860680     3.07474648     0.00000000     0.00000000     0.00000000
Ti      0.00000000     0.00000000     0.00000000     0.00000000     0.00000000     0.00000000
O       2.26924075     0.52564721     1.19844562     0.00000000    -0.04420834     2.55214145
O       2.26924075     2.17156639     4.95104734     0.00000000     0.04420834    -2.55214145
O       0.00000000     0.82291700     4.27319346    -0.00000000     0.04412915     2.55213759
O       0.00000000     1.87429660     1.87629951    -0.00000000    -0.04412915    -2.55213759
