# total energy = -4986.42638314 eV

CRYSTAL
PRIMVEC
        3.32283019     0.00000000     0.00000000
        0.00000000     5.20637675     0.00000000
        0.00000000    -0.00006757     5.20637675
PRIMCOORD
6 1
Ti      1.66141504     2.60315454     2.60318832     0.00000000     0.00000000     0.00000000
Ti      0.00000000     0.00000000     0.00000000     0.00000000     0.00000000     0.00000000
O       1.66141504     1.01463296     1.01464613     0.00000000    -0.79002702    -0.79002702
O       1.66141504     4.19167611     4.19173050     0.00000000     0.79002702     0.79002702
O       0.00000000     1.58849418     3.61783551     0.00000000     0.79038414    -0.79038414
O       0.00000000     3.61781489     1.58854113     0.00000000    -0.79038414     0.79038414
