# total energy = -19516.76047044 eV

CRYSTAL
PRIMVEC
        5.93400000     0.00000000     0.00000000
        0.00000000     9.29699974     0.00000000
        0.00000000     0.00000000     4.64899994
PRIMCOORD
23 1
Ti      4.34332901     7.01420799     2.19038402     0.51047524     0.36311215    -0.76347754
Ti      4.48137400     2.36430998     2.30250498     1.57950691     0.14754281    -1.27896129
Ti      1.35518801     6.92545898     2.33852597    -1.20640679     0.23327756    -0.19437933
Ti      1.52948598     2.27526098     2.41650199    -0.92356451     0.72144333    -0.24848050
Ti      3.00636899     4.56336600     0.12199700    -1.03426803    -0.08942737     0.22395911
Ti      2.96248300     0.16774802     4.64004600    -0.81541153    -0.86749567     1.15978290
Ti      5.90592599     4.59709702     0.01615202     1.10414395     0.62414272    -0.11731074
Ti      5.89961602     9.24176401     4.49143800     0.46745064    -0.37014643     0.44790691
O       4.37781798     5.56814500     0.88765499    -0.00602513     0.01066545     0.14471100
O       4.57436902     0.84134500     0.94953100    -0.18599213     0.43074041    -1.07570008
O       1.41053302     5.53801899     1.09605499     1.00953349    -0.15910352    -1.12899624
O       1.57456299     1.02804598     0.98230898     0.46003018    -0.94501780    -1.50015338
O       4.66068000     8.19962599     3.61375102    -1.02363522     2.04277976     1.67611563
O       4.47029102     3.82412702     3.70051502    -0.88583381    -0.16377779     0.59080270
O       1.65628002     8.50691398     3.63749499    -0.43046299    -0.36013532     0.28492564
O       1.43011898     3.60404098     3.90914601     0.33102734     0.72016369    -0.21608922
O       3.17240301     1.59095399     3.27544102    -1.53143137    -1.44263161     1.21140939
O       5.85409498     6.06329002     3.27779199     1.03776704    -0.59160874     0.34519644
O       0.07955000     1.27892701     3.05028102    -0.85752904     0.07382206     1.54851122
O       2.98518401     7.94713102     1.24284998     0.11166794    -0.92687198     1.23141155
O       2.93364802     3.30966000     1.43481098     0.75552486    -0.74539651     0.55202788
O       5.86635898     7.77245898     1.45026899     1.00326951     1.19484273    -1.50340608
O       0.00338102     3.35464499     1.66263999     0.53016347     0.09908007    -1.38980570
