# total energy = -19516.08057262 eV

CRYSTAL
PRIMVEC
        5.17600016     0.00000000     0.00000000
        0.00000000     5.50899976     0.00000000
        0.00000000     0.00000000     9.26300011
PRIMCOORD
23 1
Ti      1.82690402     3.19666002     3.39599701    -0.58601993     1.09748376     1.45586636
Ti      3.26446900     2.28489201     5.86143901     1.62072428     1.10348780    -2.39057147
Ti      4.34031800     1.97521399     1.43687800     1.78018158     1.22871112    -1.12099651
Ti      0.92836602     3.20428800     7.68764102    -2.04420903     0.46174047     3.07530277
Ti      2.04995001     0.22236002     1.33543801    -0.50178105     0.29782359    -1.92897806
Ti      3.31597298     5.26990399     7.86761500     0.75229941    -0.53789324     1.60024029
Ti      0.68901201     0.59399702     5.95663498    -1.23308148    -0.68907287    -1.84652172
Ti      4.46745701     5.02243001     3.30516998     0.89085801    -1.08410322     2.70201008
O       1.66175299     1.95383301     4.92265401    -1.06319500     0.51531843    -0.95616251
O       3.63349102     3.60565799     4.50604102    -1.41019173    -0.88823265     0.04662183
O       0.22368301     2.87312401     0.24030500     0.05692579    -1.09974222    -2.60704378
O       3.51670599     0.88928703     0.08100598    -0.01189727     0.40335096     1.12644134
O       1.82831899     4.69326102     9.10343798     0.78977711    -0.18648064    -1.12013467
O       4.15852402     0.74537600     5.11210402     0.10083125    -0.39869597    -2.27475891
O       0.86574499     4.77366500     4.41545799     0.96926126     0.46423162     0.49957453
O       0.08249000     3.49060300     2.47316100     1.16313999    -1.48483679     1.19295246
O       4.73112402     1.91496398     7.02124298     2.69396715     1.00178572     0.85102826
O       2.59417399     1.86293300     2.29234399     0.17629675     0.29901504    -0.04615106
O       2.61384700     3.70668200     6.99480301    -0.15164423    -0.23935282     0.14827506
O       0.24306402     0.47607998     1.84754500    -0.31536443     0.83906157     0.78446649
O       0.02630598     4.79632501     7.21034198    -0.80685489    -0.80550044     0.38127726
O       2.37077102     1.00780098     7.08089797    -2.51311158     0.51819909    -0.53825242
O       2.91743700     4.50170600     2.25762800    -0.35691193    -0.81629830     0.96551413
