# total energy = -19075.48475140 eV

CRYSTAL
PRIMVEC
        7.60600008     0.00000000     0.00000000
        0.00000000     7.60600008     0.00000000
       -1.89786986    -1.89786986     4.85670466
PRIMCOORD
22 1
Ti      3.91214200     6.53231500     1.26999698     0.46844540     0.42026805    -1.12897130
Ti      3.78781398     2.77930602     1.11884099    -0.14241269     0.04468219     1.55212696
Ti      0.25372398     6.80580402     1.07043398    -0.70222330     0.01439150     0.20542993
Ti      0.04214701     2.96407000     1.14353198    -0.23988890    -0.64457426    -0.69091944
Ti      5.58431423     3.02025820     3.53569383    -0.33423994    -0.85179240     0.07683899
Ti      6.01678322    -0.92596779     3.57871282    -0.13486778     0.61209839     0.46160472
Ti      1.82829121     2.73506421     3.67860079     0.36008750     0.66038578    -1.06233137
Ti      1.46582723    -1.17754675     3.94654080     0.30016329     0.17011093    -1.93082334
O       3.50162402     4.80055800     0.71890899     0.32373415    -1.41521875     0.59019206
O       3.99933703     0.85133798     0.82886599    -0.72143330     0.56777101     1.11251881
O       0.12127801     4.93042101     0.76911701     0.43908905    -0.56809805    -0.44169306
O       7.31648800     1.08043299     0.64636302     1.22855402    -0.34984499     0.76966747
O       5.27351525     4.84119024     3.94840779     1.15391307     0.63435515    -0.44808534
O       5.80553921     0.99204224     3.93041481     0.25763029     0.03959732     0.36130055
O       2.15892221     4.69348825     4.08855181    -0.99892434    -0.05165811     0.37249796
O       1.74611924     0.86121221     4.14051882    -0.42465075    -0.26670037    -0.82152202
O       3.73677922     2.64448224     3.30536879     0.11102927     0.08920471    -0.23247435
O      -0.07837877     2.89958520     3.07286080     0.37871952     0.42610754     0.53273329
O       5.77008200     6.66912701     1.63364097    -0.06289512    -0.51753935     1.37296060
O       5.57476797     3.07965702     1.53097598     0.56510374     0.20109737     0.39081348
O       2.25140901     6.58849002     2.20674602    -1.09980367     0.70391997    -0.48659122
O       1.91223301     2.72795402     1.67194600    -0.72512978     0.08143689    -0.55527261
