# total energy = -39035.36691465 eV

CRYSTAL
PRIMVEC
        7.60600008     0.00000000     0.00000000
        0.00000000     7.60600008     0.00000000
       -3.79573973    -3.79573973     9.71340985
PRIMCOORD
46 1
Ti      1.90550346     4.79843944     6.16107160    -0.42791220    -0.78983804     1.47969279
Ti      3.69648201     6.97794998     1.14069898     0.68550726    -0.50133753     0.07285866
Ti      2.07998743     0.61769744     6.06289562     0.13345059     1.25289775     0.27698427
Ti      3.69980497     2.77179202     1.29844799    -0.70604010     0.64851370    -0.51249510
Ti     -1.92084955     4.75226947     6.04901964     0.31437738    -0.05131847    -0.50888758
Ti     -0.09731400     6.76447400     1.16723198     0.23523057     0.23781710     0.20928993
Ti     -1.86814556     0.95662144     6.12138564    -0.60004094    -0.33394580     0.33214423
Ti     -0.16758202     2.87655202     1.20875800     1.75968114     0.13996988    -0.53714633
Ti      3.88406746     0.98332447     8.51144861    -0.05741378     1.32392502     0.17568200
Ti      5.73366101     2.82460899     3.62229702    -0.43942406     1.07501283     1.07479223
Ti      3.99932845    -2.65817554     8.49958964    -0.85390353    -2.56343914    -1.47936549
Ti      5.63454802    -0.81961602     3.66981999     0.40912669    -1.59828522     0.44441946
Ti      0.07458743     0.89443444     8.23167762     0.19065817     1.01970658     4.22500617
Ti      1.84987402     2.66032803     3.53472702     0.30201860     0.23802331     0.75226624
Ti      0.03332547    -2.67816855     8.42659763     1.21092962    -1.43692941     0.57965362
Ti      1.85104202    -1.23432800     3.70041797     0.23613123     0.89412125    -0.92355885
O       1.61702544    -1.07905253     5.58353163    -0.41609129    -0.35045512     0.29864197
O       3.41693201     1.11060700     0.62970399     0.68747930    -1.36598391     0.74623983
O      -2.00074653     2.81570447     5.75460262    -0.06252308     0.02835902    -0.88828845
O      -0.01612498     4.89916002     0.75391999    -0.52491199    -1.17679795    -0.08608391
O      -1.75724657    -0.91428054     5.70171664     0.35297069    -1.16956364     0.03629833
O      -0.03396799     1.00136603     0.66558999     0.05724023     1.23993604     1.64210069
O       3.72731447     3.08612447     8.85243365     0.22545421    -2.58727636     0.01311057
O       5.84040400     4.70978299     4.12660500    -0.37606820    -0.36780210    -0.85994485
O       4.01869745    -0.89555555     8.90147362     0.06976125     1.54812221     0.59627787
O       5.79053502     0.95811298     4.19190198    -0.05576133     1.15656953    -1.24787561
O       0.15405747     2.80655944     9.10656060     0.06568425    -1.22589704    -0.42715527
O       1.98934900     4.50821101     4.31292498    -0.46912340    -0.57244682    -2.08423444
O      -0.17543057    -0.91863356     8.81112560     0.47925895     2.53249539     0.34049955
O       1.85295298     0.90058702     4.16004800     0.14081680     0.33802049    -0.25300513
O       2.04814546     0.76422847     8.05313962    -0.60772468     0.56500321     0.28132353
O       3.67226400     2.78701999     3.21676399     2.43036188     0.12819345    -0.00382863
O       1.88075447    -2.71188656     8.14398761     1.25369376     0.41223669     0.02997650
O       3.79272199    -1.02178999     3.55958999    -1.18970772    -0.04415357    -0.79612722
O      -1.81476856     1.15360344     8.09545163    -0.95974560    -0.09404379    -0.03444354
O       0.05929600     2.92587901     3.14401302    -2.63028630    -0.13805338     0.16166974
O      -1.74394157    -3.00585156     7.95646862    -3.16523820     0.54358129     0.92241677
O      -0.03918102    -0.90837598     3.15624998     0.62740648    -0.53422170    -0.17451395
O       3.77006643     4.83842847     6.43825163     1.09415135    -0.07211844     0.52955849
O       5.53223699    -0.61284901     1.73049099     0.79371835    -0.44254487    -0.35040421
O       3.85975647     0.43693345     6.45341060     0.54537772     1.38072559     0.16906809
O       5.64093799     2.61574098     1.60825698    -0.40687028     0.75384464     0.38073218
O       0.06445146     4.48171146     6.60883864     0.35045717    -0.13455411    -2.28717220
O       1.93265501     6.78242200     1.56146702    -1.20408842    -1.08422561     1.11380333
O       0.07746747     0.87973247     6.53835164     0.28980843     0.35016021    -3.45567012
O       1.82245502     2.77909599     1.57971300     0.21212252     0.82799708     0.02569381
