# total energy = -19936.72420052 eV

CRYSTAL
PRIMVEC
        6.95621148     0.00000000     0.00000000
        0.00002738     4.93567499     0.00000000
        0.00000000     0.00000000    10.80736894
PRIMCOORD
24 1
Ti      2.52130842     2.92487641     4.00945679     0.49646195    -0.14066845     0.79233407
Ti      4.43493056     2.01079858     6.79791227    -0.49646195     0.14066845    -0.79233407
Ti      5.99929425     2.01080030     1.39418453     0.49603952     0.14109602    -0.79511420
Ti      0.95694473     2.92487493     9.41318459    -0.49603952    -0.14109602     0.79511420
Ti      2.52129473     0.45703903     1.39422786     0.49561503    -0.14045916    -0.79554178
Ti      4.43494425     4.47863613     9.41314126    -0.49561503     0.14045916     0.79554178
Ti      0.95693104     0.45703719     6.79786888    -0.49643367    -0.14145392    -0.79372324
Ti      5.99930794     4.47863797     4.00950012     0.49643367     0.14145392     0.79372324
O       2.20169455     1.73793509     5.51491766     0.94702121     0.93474393    -0.87918802
O       4.75454443     3.19773996     5.29245140    -0.94702121    -0.93474393     0.87918802
O       1.27647129     1.73795498     0.11126792    -0.94585341     0.93395177    -0.87950581
O       5.67976781     3.19772007    10.69610078     0.94585341    -0.93395177     0.87950581
O       4.75453080     0.72990240     0.11123284    -0.94699704    -0.93443462    -0.87937623
O       2.20170818     4.20577259    10.69613587     0.94699704     0.93443462     0.87937623
O       5.67975412     0.72988257     5.51495269     0.94523712    -0.93388132    -0.87957806
O       1.27648480     4.20579254     5.29241631    -0.94523712     0.93388132     0.87957806
O       0.25275204     3.00215732     2.91933999    -1.54702769     0.43367790     0.45847132
O       6.70348694     1.93351773     7.88802907     1.54702769    -0.43367790    -0.45847132
O       3.73086556     1.93347171     2.48437891    -1.54765170    -0.43332463    -0.45912103
O       3.22537342     3.00220334     8.32298997     1.54765170     0.43332463     0.45912103
O       0.25273835     0.53431976     2.48434436    -1.54558684     0.43332720    -0.45880993
O       6.70350063     4.40135523     8.32302446     1.54558684    -0.43332720     0.45880993
O       3.22535979     0.53436579     7.88806350     1.54810524     0.43362288    -0.45792984
O       3.73087919     4.40130926     2.91930550    -1.54810524    -0.43362288     0.45792984
