# total energy = -4988.49672221 eV

CRYSTAL
PRIMVEC
        3.18340530     0.00000000     0.00000000
        0.74400332     4.93211857     0.00000000
       -0.00000467    -0.00006475     5.00208581
PRIMCOORD
6 1
Ti      1.96370168     2.46602682     2.50104285     0.00000000     0.00000000     0.00000000
Ti      0.00000000     0.00000000     0.00000000     0.00000000     0.00000000     0.00000000
O       1.73669688     0.96118459     0.97483281     0.27569641    -0.41499857    -0.50950233
O       2.19070648     3.97086905     4.02725282    -0.27569641     0.41499857     0.50950233
O       0.22700277     1.50481600     3.47587673    -0.27559176     0.41539298    -0.50943548
O       0.51699542     3.42723774     1.52620891     0.27559176    -0.41539298     0.50943548
