# total energy = -19069.34532832 eV

CRYSTAL
PRIMVEC
        5.93400000     0.00000000     0.00000000
        0.00000000     9.29699974     0.00000000
        0.00000000     0.00000000     4.64899994
PRIMCOORD
22 1
Ti      4.40157301     6.77186502     2.37003800     1.03720988    -0.85104703     0.43239183
Ti      4.29670501     2.49359200     2.00874202     1.11318627     0.49320230    -1.70774638
Ti      1.33004098     7.63146600     2.77879901     0.21699682    -2.33455045    -1.94289211
Ti      1.60965797     2.02003498     2.36437501    -1.40657187     3.02077017    -0.71380149
Ti      3.00879199     4.71538698     4.23337201    -0.61972300    -1.76708849    -0.27211512
Ti      3.11322898     9.22871101     4.37008998     4.32481001     1.69502944     1.01544651
Ti      5.72397998     4.42901101     4.46617100     1.19541557    -0.72889439    -1.27974316
Ti      0.09666301     0.10697699     0.49599598    -1.48179081    -0.07885165    -0.35783676
O       4.64162999     5.63682702     0.64926403    -1.25188782    -0.02103832     0.73565331
O       4.27071801     0.87764301     0.94444201     1.50065346    -0.60823299    -1.12542138
O       1.61611801     0.34518502     1.58441299     0.16322474     1.20129363    -0.66597562
O       4.57225802     8.03389101     3.92816702    -0.39112536     2.45770737     1.03280044
O       4.31967902     4.18480402     2.92947398     0.02972171     0.01203765     1.93236138
O       1.73499498     8.12967701     4.44859301    -3.16587197    -0.27477544     0.10799743
O       1.46171298     3.65127302     3.41480000     0.37301476     0.89991138     1.79432008
O       2.76567801     6.27741402     3.38555799     0.30609586    -2.49700181     1.05351145
O       3.19020998     1.58453401     3.22685000     0.91928799    -1.62543454     2.11520262
O       0.25058300     6.08785998     3.05831001     0.12998834     0.45724181     0.23565558
O       3.02372600     7.76978399     1.87632600    -0.77688199     1.91492132    -2.11123412
O       2.73977002     2.79058501     1.05012902     0.46498315     1.85463844    -0.14966988
O       5.77275102     8.21554100     1.75998501    -1.57445391    -2.40659433     0.57038454
O       0.14724399     3.19482801     1.24507400    -1.10628157    -0.81324409    -0.69928915
