# total energy = -19958.91224855 eV

CRYSTAL
PRIMVEC
        7.60600008     0.00000000     0.00000000
        0.00000000     7.60600008     0.00000000
       -1.89786986    -1.89786986     4.85670466
PRIMCOORD
24 1
Ti      3.84111901     6.67632699     1.16208499    -2.39138497     0.57392957    -0.59426238
Ti      3.90059498     2.91252300     1.20011500     0.87138267    -0.95815074    -0.67657448
Ti     -0.13001800     6.75170501     1.25106000     1.01934097     0.12195595     0.85989986
Ti      0.01348799     2.89743500     1.27257402    -0.69185712    -0.95243749     1.72963033
Ti      5.62915422     2.88591920     3.77697082     2.53126537    -2.90528877    -0.93939505
Ti      5.54420322    -1.06129778     3.57876981    -0.16921002     2.89531572     1.03768374
Ti      2.12477123     2.76398120     3.64388179    -2.41237829     0.78235587    -0.27065499
Ti      1.83939721    -0.96142976     3.57882881     0.39390781    -0.62403936     0.18524857
O       3.74910202     4.78258900     0.74860203     0.68655242    -1.53219473     0.11341295
O       4.15246399     0.87069899     0.71344201    -1.54929540     1.93495845    -0.26334508
O      -0.27137998     4.89330399     0.93599099     1.01881209    -1.62191881    -0.79656225
O      -0.26914399     1.08455798     0.77844201     0.69581559    -1.11518067    -0.32646312
O       5.54003320     4.69355222     4.04707881     0.39376511     1.86195143     0.64068778
O       5.69355223     0.87805423     3.74236681    -0.12290315     0.84276859     2.55398930
O       1.99657624     4.71965924     4.00272582    -0.41679115     0.07222103    -0.21690529
O       2.14857023     0.95279422     3.94397582    -0.85412541    -0.92212289     1.68869218
O       3.91987625     2.59319025     3.20276683    -0.63169508     0.90366931    -0.23180226
O       3.70405522    -0.93407775     3.19460480     0.77897898    -0.47726532    -0.21892514
O       0.04376021     2.55941223     3.24831481     0.99972756     1.35967442    -0.96804050
O      -0.08696880    -0.81930878     3.18680383     0.64868674    -0.71246606    -0.03019273
O       5.54090502     6.73135698     1.69306001     2.87297976    -1.01857503    -0.52701875
O       5.79921602     3.06709700     1.84018600    -0.75488568     0.15445034    -1.58255264
O       1.88553400     6.53012500     1.62455701    -1.25591263     0.88262662    -0.52025109
O       2.11755198     2.75416698     1.65366298    -1.66077616     0.45376285    -0.64629896
