# total energy = -19074.69513995 eV

CRYSTAL
PRIMVEC
        7.60600008     0.00000000     0.00000000
        0.00000000     7.60600008     0.00000000
       -1.89786986    -1.89786986     4.85670466
PRIMCOORD
22 1
Ti      3.62761599     6.61225199     1.37939999     0.13221029     0.06319594     0.09714943
Ti      4.14460100     2.90279699     1.21510701    -0.94580739    -0.08373598    -0.65755679
Ti     -0.10824802     6.68041399     1.29219099    -0.05328279    -0.35958099     1.51066508
Ti      0.17087398     2.85766002     1.13204301    -1.39702690     0.14265668     0.05419065
Ti      5.85631324     3.03477120     3.63612479    -0.47707068    -1.11762271     0.58698358
Ti      5.58455320    -0.97299276     3.70225882     0.24165628     0.59681626     1.07427903
Ti      1.99489822     3.07850924     3.63193879     1.51172694    -2.08050531     1.40097663
Ti      1.62900120    -0.97904977     3.95486481    -0.22677653     2.64077589    -1.25066269
O       3.92811702     4.68063998     0.77282199    -0.32657085     0.90384748     0.50619744
O       3.40987802     0.97561197     0.97273902     0.67356269     0.88376510     1.03896415
O       0.01154702     4.87088100     0.80206999     0.69823089    -0.89278582     0.86049353
O       0.33695600     0.81961401     0.82425199    -0.07303633     2.36564719     0.54452926
O       5.23369524     4.81909122     4.20027484     0.69616655     0.86080180    -0.83302231
O       5.39076923     1.18195925     4.10236583     1.01314023    -1.76243865     0.26916478
O       1.98704623     4.85311721     4.33272081     0.15864664    -0.47082701    -0.56741260
O       2.08569323     0.98642524     3.96107883     0.01640082    -1.05926353     1.17057588
O       3.76192525     3.29616021     3.10211980     0.43196760    -1.18353682    -1.51673777
O       0.18969824     3.01587624     3.48584184    -2.20249495     0.41284862    -1.51533626
O       5.50083302     6.64817598     1.83194602     0.90751799    -0.01425214    -0.67236044
O       5.92768702     2.59725602     1.71344799    -0.21890072     0.35866980    -0.11586552
O       1.94804502     6.37151402     2.06407301    -0.35270792    -0.05083638    -1.10759797
O      -0.15167977    -0.79347377     3.38379979    -0.20755212    -0.15363890    -0.87761682
