# total energy = -19075.51199259 eV

CRYSTAL
PRIMVEC
        7.60600008     0.00000000     0.00000000
        0.00000000     7.60600008     0.00000000
       -1.89786986    -1.89786986     4.85670466
PRIMCOORD
22 1
Ti      3.88025500     6.66967100     1.29814101     0.35647176    -0.30205485    -0.98829668
Ti      3.69553600     2.89083700     1.16675403     0.55036155     0.15620306     1.39793296
Ti      0.08317698     6.61669702     1.06273000    -0.08409053    -0.56537294     0.06249146
Ti     -0.04686198     2.78173399     1.14368602    -0.61039709     0.80535543     0.04168608
Ti      5.72056721     2.71209622     3.53824383    -2.14385423     1.43500288     0.15668334
Ti      6.11791122    -0.83134275     3.65040183    -0.67713009    -2.05306032     0.05313547
Ti      1.77223022     2.86579120     3.69023983     2.47792293    -0.24146961    -0.39957246
Ti      1.52453023    -0.95653080     3.80922682     0.19470817     0.33219719    -0.49843219
O       3.85264602     4.76213402     0.90170999    -0.68351903     0.94127376    -0.49633262
O       3.89223499     0.96984802     0.77433099    -0.04876228    -0.70922364     1.87874537
O       0.26354800     4.70438898     0.66452301    -0.71356161    -0.63353317    -0.14836325
O       7.32994699     0.94988602     0.63108202     1.05553440     0.16673302     1.12404892
O       5.78165622     4.71943222     4.07713979     0.29412917     0.84889810    -1.35239228
O       5.32097224     0.82484424     3.80730379     1.06996189     1.03515943     0.38833031
O       2.04320924     4.72541123     4.24628881    -0.94048495     0.75686286    -0.72965081
O       1.97798423     0.94697121     4.06310579    -0.83875947     0.28623845    -0.29173161
O       3.73882725     2.93243721     3.11635980     0.41445067    -0.37189067     0.87026449
O      -0.02903077     2.80238820     3.17285784     0.11794246    -0.40071660    -0.18628883
O       5.88205999     6.43437398     1.76924799    -0.46560587     0.66086683     0.00158174
O       5.67347800     3.00057302     1.57764301     1.10244316    -0.49085360     0.25936476
O       1.93302898    -0.77235700     2.00136699     0.39412018    -0.73401911    -1.12676710
O       1.85908101     3.00682498     1.63865302    -0.82188171    -0.92259675    -0.01643681
