# total energy = -4980.09470148 eV

CRYSTAL
PRIMVEC
        5.18178944     0.00000000     0.00000000
       -0.00000784     3.10907366     0.00000000
       -2.59092390    -1.55459355     5.64319220
PRIMCOORD
6 1
Ti     -0.00022211     2.33191576     1.41079768    -0.00480488    -0.00956554    10.83486671
Ti      2.59107963    -0.77743576     4.23239383     0.00480488     0.00956554   -10.83486671
O       0.00005488     0.77725843     0.91922978     0.00379006     0.00433102    -5.30894536
O       2.59080252     0.77722151     4.72396179    -0.00379006    -0.00433102     5.30894536
O      -0.00002134    -0.77726878     3.74082588    -0.00247649    -0.00011416    -2.36168023
O       2.59087869     2.33174866     1.90236563     0.00247649     0.00011416     2.36168023
