# total energy = -19918.02135056 eV

CRYSTAL
PRIMVEC
        6.38506505     0.00000000     0.00000000
        1.99386270     6.49655556     0.00000000
        0.00000000     0.00000000    11.56155512
PRIMCOORD
24 1
Ti      3.49584013     3.84985284     4.28925449    -0.20248756    -2.03346156     0.68731629
Ti      4.88308750     2.64670286     7.27230070     0.20248756     2.03346156    -0.68731629
Ti      6.31900830     2.64670510     1.49147691    -0.04241216    -0.69241017    -0.08652665
Ti      2.05991944     3.84985085    10.07007840     0.04241216     0.69241017     0.08652665
Ti      2.49890893     0.60157517     1.49152326    -0.20248756    -2.03346156    -0.68731629
Ti      5.88001873     5.89498072    10.07003205     0.20248756     2.03346156     0.68731629
Ti      1.06298811     0.60157274     7.27225434     0.04241216     0.69241017    -0.08652665
Ti      7.31593955     5.89498315     4.28930084    -0.04241216    -0.69241017     0.08652665
O       2.72298632     2.28754770     5.89977309     1.83244390     2.07161058    -0.68768962
O       5.65594132     4.20900807     5.66178210    -1.83244390    -2.07161058     0.68768962
O       1.87373744     2.28757391     0.11903271    -0.60156354    -0.16266476     1.16526578
O       6.50519028     4.20898191    11.44252215     0.60156354     0.16266476    -1.16526578
O       4.65901009     0.96073021     0.11899520    -1.83244390    -2.07161058    -0.68768962
O       3.71991755     5.53582556    11.44255966     1.83244390     2.07161058     0.68768962
O       5.50825905     0.96070405     5.89981060     0.60156354     0.16266476     1.16526578
O       2.87066854     5.53585179     5.66174459    -0.60156354    -0.16266476    -1.16526578
O       1.44476450     3.95157341     3.12306448     0.54422638     1.98037289     1.99488549
O       6.93416314     2.54498236     8.43849071    -0.54422638    -1.98037289    -1.99488549
O       4.20559314     2.54492178     2.65774988     0.68728493     1.81422094     1.04841758
O       4.17333450     3.95163399     8.90380511    -0.68728493    -1.81422094    -1.04841758
O       0.44783321     0.70329556     2.65771296     0.54422638     1.98037289    -1.99488549
O       7.93109437     5.79326022     8.90384204    -0.54422638    -1.98037289     1.99488549
O       3.17640327     0.70335613     8.43852757    -0.68728493    -1.81422094     1.04841758
O       5.20252437     5.79319964     3.12302755     0.68728493     1.81422094    -1.04841758
