# total energy = -19072.63175774 eV

CRYSTAL
PRIMVEC
        5.93400000     0.00000000     0.00000000
        0.00000000     9.29699974     0.00000000
        0.00000000     0.00000000     4.64899994
PRIMCOORD
22 1
Ti      4.33818700     6.75937797     2.47547001     1.14154940     0.93378902    -0.42457722
Ti      4.35749202     2.44101099     2.12126400     2.17394103    -0.98078469     1.18262279
Ti      1.56242202     7.28324101     2.48206901    -1.30614069     0.79638690     0.28948344
Ti      1.65476203     2.24483101     2.16188402    -0.52194519     0.31323839     0.28655984
Ti      3.01537199     4.57922999     4.41557198    -0.96721414     0.96546759     1.22276724
Ti      3.00614001     0.02636398     0.01340702     0.42810658    -0.13083500    -0.45021601
Ti      5.82644700     4.54455401     4.46521102     0.17478134    -0.11330136    -0.45748633
Ti      5.85662900     9.28577399     0.25070301    -0.51112804    -1.07070391     0.55242023
O       4.44698600     5.33734202     0.86492900     0.70178441     0.62471762     1.41924253
O       4.33963700     0.74892498     1.28373898     0.95717707     0.29599579    -1.66917082
O       1.53558401     0.56731098     1.17526002    -0.33189869     2.55772537     0.64514993
O       4.45146898     8.33853698     3.82256298     0.60161702     1.74839554     0.63639866
O       4.27382402     4.09381099     3.24881398     1.84713519    -0.87144283    -0.52854522
O       1.40708998     8.47649301     3.88885498     0.13760781     0.53275128    -0.97766645
O       1.62158499     3.88532102     3.44602501    -1.40030069    -0.38725842    -0.08127466
O       2.92534698     6.43560098     3.69343701    -0.89335301    -1.56718823    -1.01538352
O       3.03150602     1.51917999     3.40649203    -0.04601814    -0.04098366    -0.11071457
O       0.04903002     6.24234698     3.44750601     0.45782494    -1.37531959    -0.64445162
O       3.08840400     7.99841798     1.60560601    -0.54155577    -2.36011443     0.09158941
O       3.04985699     2.97476700     1.07468898    -1.99205573     1.67045174    -1.00083596
O       5.89392398     7.98367399     1.44759098     0.21782471    -2.41379394     1.32232013
O       0.08522601     2.87420501     1.25445801    -0.32773941     0.87280706    -0.28823208
