# total energy = -19947.06884051 eV

CRYSTAL
PRIMVEC
        5.30464910     0.00000000     0.00000000
        2.17146747     5.21145175     0.00000000
        0.00000000     0.00000000     9.69768374
PRIMCOORD
24 1
Ti      3.20948982     3.08830158     3.59777150     2.20645599    -3.42332846     1.16592527
Ti      4.26662684     2.12315032     6.09991235    -2.20645599     3.42332846    -1.16592527
Ti      5.45957585     2.12315209     1.25103165    -4.71751608     0.17426995     1.31537969
Ti      2.01654085     3.08830002     8.44665224     4.71751608    -0.17426995    -1.31537969
Ti      2.12375619     0.48257568     1.25107053     2.20645599    -3.42332846    -1.16592527
Ti      5.35236050     4.72887637     8.44661337    -2.20645599     3.42332846     1.16592527
Ti      0.93080709     0.48257376     6.09987342     4.71751608    -0.17426995     1.31537969
Ti      6.54530960     4.72887829     3.59781037    -4.71751608     0.17426995    -1.31537969
O       2.44356553     1.83504081     4.94865380     0.50957124     1.35993204    -1.10825849
O       5.03255107     3.37641110     4.74903005    -0.50957124    -1.35993204     1.10825849
O       1.73802004     1.83506187     0.09984309     0.86413858    -0.74754029     0.29153981
O       5.73809669     3.37639013     9.59784043    -0.86413858     0.74754029    -0.29153981
O       3.94681742     0.77068510     0.09981161    -0.50957124    -1.35993204    -1.10825849
O       3.52929924     4.44076680     9.59787192     0.50957124     1.35993204     1.10825849
O       4.65236298     0.77066408     4.94868523    -0.86413858     0.74754029     0.29153981
O       2.82375358     4.44078789     4.74899856     0.86413858    -0.74754029    -0.29153981
O       1.51353980     3.16990053     2.61958633     0.33492051     0.17044081     0.14528975
O       5.96257680     2.04155138     7.07809751    -0.33492051    -0.17044081    -0.14528975
O       3.69570290     2.04150288     2.22928644     1.72478431    -0.23682311    -1.12116980
O       3.78041371     3.16994903     7.46839725    -1.72478431     0.23682311     1.12116980
O       0.42780614     0.56417448     2.22925543     0.33492051     0.17044081    -0.14528975
O       7.04831051     4.64727742     7.46842820    -0.33492051    -0.17044081     0.14528975
O       2.69468006     0.56422303     7.07812841    -1.72478431     0.23682311    -1.12116980
O       4.78143655     4.64722888     2.61955538     1.72478431    -0.23682311     1.12116980
