# total energy = -19517.20074838 eV

CRYSTAL
PRIMVEC
        5.93400000     0.00000000     0.00000000
        0.00000000     9.29699974     0.00000000
        0.00000000     0.00000000     4.64899994
PRIMCOORD
23 1
Ti      4.49873102     6.95938300     2.44632298    -0.13220566     0.42617028    -0.55291131
Ti      4.43077598     2.40312899     2.30910700    -0.14408622     0.41733108    -0.74124855
Ti      1.38521199     7.04392298     2.16741598     0.63587107     0.14583405    -0.21181784
Ti      1.42428300     2.29513699     2.45868001    -0.02021839     0.85455607    -0.79624266
Ti      3.03068500     4.71930400     0.04269799     0.46700687    -0.82264919     1.49383566
Ti      2.95025900     0.09059298     0.06328500     1.24418248    -0.53448858     0.50076829
Ti      0.06243000     4.60237599     0.00736699    -0.25636042     0.23107773     0.03020919
Ti      0.08968702     9.22927897     4.48801200    -1.22882707    -0.04326243     0.46589898
O       4.55058203     5.63713601     0.76155300    -1.43315143     0.34578548     0.22977983
O       4.44953499     0.87226699     0.78884199    -0.34384764     0.45082742     0.80564828
O       1.41088900     5.52978600     1.08628098     1.05419074    -0.70158438    -1.96553608
O       1.36248198     0.89250299     0.87572898     0.86621783    -0.49668435    -0.16731177
O       4.46261398     8.32651200     3.80520899    -0.64650027    -0.52409823    -0.54760070
O       4.47537498     3.76079599     3.72723398    -0.62410081    -0.03569207    -0.65660008
O       1.48874002     8.12608099     3.74950297    -0.13114405     1.60710488     1.05473401
O       1.47931299     3.59442202     3.89181001     0.58093969     0.74496122    -1.41712497
O       2.89285899     1.46549501     3.29680401     0.61681482    -0.48145956    -0.73944312
O       5.91437901     5.97772999     3.09869798    -0.09685606    -0.63460095     1.23358130
O       5.88633198     1.38219298     3.14249502     0.19630303    -0.69719910     0.57330197
O       2.93706201     7.85164400     1.41431600     0.03269159    -0.35261870     0.63835990
O       3.07676999     3.42544398     1.35265701    -0.37282578    -1.48086727     1.16863573
O       5.80195700     7.84206902     1.51986702     0.30719269     1.53790284    -1.45267305
O       0.02758903     3.16309298     1.31745799    -0.57128674     0.04365401     1.05375751
