# total energy = -19951.24687772 eV

CRYSTAL
PRIMVEC
        5.66922074     0.00000000     0.00000000
        0.30153090     6.02622618     0.00000000
        0.00000000     0.00000000    10.14983131
PRIMCOORD
24 1
Ti      2.23350670     3.57113590     3.76551502     0.08624846    -0.88586441     0.60527570
Ti      3.73724470     2.45509005     6.38431640    -0.08624846     0.88586441    -0.60527570
Ti      5.01218062     2.45509211     1.30936013    -0.05390705     0.34121740    -0.37010607
Ti      0.95857084     3.57113408     8.84047141     0.05390705    -0.34121740     0.37010607
Ti      2.08274137     0.55802304     1.30940081     0.08624846    -0.88586441    -0.60527570
Ti      3.88801004     5.46820308     8.84043073    -0.08624846     0.88586441     0.60527570
Ti      0.80780550     0.55802081     6.38427567     0.05390705    -0.34121740    -0.37010607
Ti      5.16294596     5.46820531     3.76555576    -0.05390705     0.34121740     0.37010607
O       1.90051822     2.12193659     5.17938123     1.13737933     1.12869774    -0.11469156
O       4.07023318     3.90428936     4.97045020    -1.13737933    -1.12869774     0.11469156
O       1.14647469     2.12196091     0.10449820    -0.92295027     0.73793105     0.21464683
O       4.82427677     3.90426510    10.04533294     0.92295027    -0.73793105    -0.21464683
O       3.91946784     0.89117633     0.10446528    -1.13737933    -1.12869774    -0.11469156
O       2.05128356     5.13504962    10.04536585     1.13737933     1.12869774     0.11469156
O       4.67351144     0.89115207     5.17941420     0.92295027    -0.73793105     0.21464683
O       1.29723991     5.13507400     4.97041723    -0.92295027     0.73793105    -0.21464683
O       0.38938408     3.66549224     2.74172270     0.30330672     0.04753277     0.41072488
O       5.58136738     2.36073371     7.40810878    -0.30330672    -0.04753277    -0.41072488
O       3.15871732     2.36067757     2.33322529     0.44199285     0.44891529    -0.10410761
O       2.81203414     3.66554838     7.81660596    -0.44199285    -0.44891529     0.10410761
O       0.23861875     0.65237920     2.33319290     0.30330672     0.04753277    -0.41072488
O       5.73213271     5.37384675     7.81663835    -0.30330672    -0.04753277     0.41072488
O       2.66126880     0.65243535     7.40814112    -0.44199285    -0.44891529    -0.10410761
O       3.30948265     5.37379060     2.74169025     0.44199285     0.44891529     0.10410761
