# total energy = -19958.21091672 eV

CRYSTAL
PRIMVEC
        5.03458223     0.00000000     0.00000000
        0.79927911     5.29836991     0.00000000
        0.00000000     0.00000000     9.03638486
PRIMCOORD
24 1
Ti      2.29844595     3.13980905     3.35243436     1.05373103    -0.70705132     0.43616493
Ti      3.53541533     2.15856071     5.68395070    -1.05373103     0.70705132    -0.43616493
Ti      4.66762927     2.15856250     1.16572203    -1.58486843    -0.55921463     0.97656782
Ti      1.16623203     3.13980746     7.87066313     1.58486843     0.55921463    -0.97656782
Ti      1.89880651     0.49062419     1.16575827     1.05443191    -0.70513507    -0.43697611
Ti      3.93505478     4.80774572     7.87062689    -1.05443191     0.70513507     0.43697611
Ti      0.76659255     0.49062225     5.68391446     1.58529189     0.55949360     0.97694654
Ti      5.06726874     4.80774766     3.35247060    -1.58529189    -0.55949360    -0.97694654
O       1.87491680     1.86564605     4.61119807    -0.38946468    -0.02120081    -0.47653538
O       3.95894447     3.43272371     4.42518694     0.38946468     0.02120081     0.47653538
O       1.20528647     1.86566747     0.09303464     0.66623015    -0.73455442     0.18502719
O       4.62857487     3.43270234     8.94335017    -0.66623015     0.73455442    -0.18502719
O       3.55930502     0.78353869     0.09300533     0.38942560     0.02112856    -0.47632815
O       2.27455626     4.51483106     8.94337948    -0.38942560    -0.02112856     0.47632815
O       4.22893541     0.78351732     4.61122743    -0.66619416     0.73454182     0.18507887
O       1.60492582     4.51485249     4.42515764     0.66619416    -0.73454182    -0.18507887
O       0.66908487     3.22276892     2.44095303    -0.42262858    -0.24733893    -0.60446272
O       5.16477640     2.07560079     6.59543203     0.42262858     0.24733893     0.60446272
O       3.01332387     2.07555151     2.07726824     0.50972319    -0.59560604    -0.64545846
O       2.82053741     3.22281819     6.95911667    -0.50972319     0.59560604     0.64545846
O       0.26944541     0.57358391     2.07723935    -0.42272783    -0.24699466     0.60443932
O       5.56441586     4.72478580     6.95914551     0.42272783     0.24699466    -0.60443932
O       2.42089795     0.57363318     6.59546083    -0.50987591     0.59557133    -0.64550114
O       3.41296333     4.72473652     2.44092419     0.50987591    -0.59557133     0.64550114
