# total energy = -4987.75409505 eV

CRYSTAL
PRIMVEC
        4.51814019     0.00000000     0.00000000
       -0.00000842     3.69665995     0.00000000
       -2.25910024    -1.84837222     5.29490481
PRIMCOORD
6 1
Ti     -0.00019610     2.77263274     1.32372634    -0.00165116    -0.00087957     3.03065041
Ti      2.25922763    -0.92434523     3.97117863     0.00165116     0.00087957    -3.03065041
O       0.00004661     0.92415721     0.86249679     0.00005271     0.00038978    -0.66685982
O       2.25898481     0.92413018     4.43240825    -0.00005271    -0.00038978     0.66685982
O      -0.00002186    -0.92414880     3.50994908    -0.00239498    -0.00014218    -1.69090925
O       2.25905316     2.77243619     1.78495590     0.00239498     0.00014218     1.69090925
