# total energy = -19074.46050900 eV

CRYSTAL
PRIMVEC
        5.17600016     0.00000000     0.00000000
        0.00000000     5.50899976     0.00000000
        0.00000000     0.00000000     9.26300011
PRIMCOORD
22 1
Ti      1.81876702     3.38912999     3.31731698     1.41311070     0.77878487    -0.17957748
Ti      3.59078102     2.26188597     5.91988700    -0.21892720    -0.32200302     0.43403734
Ti      4.39782099     2.23602900     1.27679400    -0.28379076     0.10700370    -2.08741001
Ti      0.74825102     3.24384199     8.09357802     0.80508135     0.35695127     1.49526519
Ti      1.78358398     0.49291898     1.30809902     0.60093028    -0.13001662    -2.31313084
Ti      3.25393102     4.94925501     8.05696203     0.09947062     0.84775088     0.71055650
Ti      0.65997801     0.17187899     5.98018601     0.73984884     2.39003822    -0.36571719
Ti      4.51082901     5.06782400     3.36504898    -1.56025473    -0.20228933     1.02987247
O       3.41213200     3.48179099     4.50940098    -0.48928703    -0.15371783     0.19404354
O       0.84160397     1.86763299     0.20333498    -0.76762396     1.11646468    -1.00268124
O       4.30391198     3.71863199     9.06728200     0.12462013    -0.75331808     0.40866132
O       3.35704099     0.74196699     0.25984101     1.12015216     1.29535773    -0.93072683
O       1.63767801     4.73512201     8.99511899    -1.35777411    -0.08245711     0.59310127
O       4.32205699     0.90326900     4.65039798    -0.18940707    -0.08805415     1.06037424
O       1.05510202     4.97438199     4.24791402    -0.06108326    -1.19463602     1.50982844
O       0.08967999     3.55045898     2.43435299     0.26092593    -1.46032003    -0.20702453
O       0.18824602     2.33901398     6.58913700    -1.00248892    -1.61110783    -1.12718901
O       2.55592501     1.93656902     2.22975602     0.71248740     1.34148334     1.18901353
O       2.52298102     3.41790500     7.21182198    -0.12789752    -0.60170418    -1.39918355
O       0.02236102     0.70028200     2.04711902    -0.39656787    -0.39963468     1.28041756
O       2.42141699     0.78926999     6.64574901    -0.14952256    -0.74591304    -0.41306690
O       2.69198902     4.72329500     2.36538802     0.72799759    -0.48866276     0.12053567
