# total energy = -19959.17809083 eV

CRYSTAL
PRIMVEC
        7.60600008     0.00000000     0.00000000
        0.00000000     7.60600008     0.00000000
       -1.89786986    -1.89786986     4.85670466
PRIMCOORD
24 1
Ti      3.65883200     6.64022398     1.15375002     1.19367262    -0.33177090     0.72346627
Ti      3.96581201     2.90654298     1.14261899    -1.78132521     0.91071567     0.02591030
Ti     -0.11734902     6.54047798     1.26811602    -1.20278590    -0.17699815    -0.72571985
Ti     -0.01707300     2.75312598     1.23187902     1.90747875     0.95052871     0.57473510
Ti      5.84742221     2.68161423     3.64051982    -1.90010790     2.70910787     1.38838414
Ti      5.64126322    -0.95209777     3.76511582     0.39814473    -3.65796793    -2.05081240
Ti      1.92311321     3.01654322     3.50572684     1.31625541    -1.14214024     0.27243933
Ti      1.92814621    -0.99575976     3.60892683    -0.95352147     1.13279453     0.09251295
O       3.99332102     4.84609799     0.75662901    -0.52865937    -0.03340430    -0.15166095
O       3.51742800     1.00895803     0.76956501     1.15443063     0.58468810    -0.65007102
O       0.10094601     4.77357600     0.67974802    -0.83635060    -1.79973303     0.80317590
O       7.26093498     0.89364401     0.85673601     0.77895199     0.65374359     0.74598812
O       5.78827925     4.69254224     4.18805179    -0.94318358     1.09075081    -0.63726795
O       5.85382325     0.83331722     4.23473983     0.19821670     1.12689591    -1.47847074
O       1.99594525     4.82934323     4.06065682    -0.06334095     0.13341871    -0.27212437
O       1.78143124     1.18972222     4.08531182     0.61821890    -2.06520030    -1.11857684
O       3.92481321     2.81704821     3.07839880     0.21310339    -0.37765637     0.53283485
O       3.77998522    -1.08282778     3.13094779    -1.48944061     0.92972719     1.53840935
O      -0.00540279     3.03609124     3.44993483     1.40549458    -0.76163457    -2.04065037
O      -0.13122675    -1.18854676     3.23604679     1.00212999     0.84498103     0.23058459
O       5.53806699     6.54594999     1.70393699     1.55047168     0.98228210    -0.07948054
O       5.86783401     3.03947998     1.55091099    -1.14694872    -0.40126348     0.47111986
O       1.79748198     6.63559998     1.61487402     0.36380120     0.28164080     0.91198297
O       2.00421899     3.30841701     1.60178498    -1.25470601    -1.58350600     0.89329156
