# total energy = -19074.16119861 eV

CRYSTAL
PRIMVEC
        5.17600016     0.00000000     0.00000000
        0.00000000     5.50899976     0.00000000
        0.00000000     0.00000000     9.26300011
PRIMCOORD
22 1
Ti      1.71578802     3.38116402     3.33154502     0.04193934     0.39499384    -0.66292654
Ti      3.60781402     2.24087002     5.87870802    -0.34748549     0.21007720    -0.86818010
Ti      4.40843501     2.20123501     1.18416200     0.03390386     1.01141219    -1.55242907
Ti      0.77251798     3.30429800     8.07590599    -0.28723424     0.00902432     1.56761581
Ti      1.81166102     0.55510498     1.36386599    -0.34919708     0.46837418    -2.33165539
Ti      3.25041898     5.04763599     8.06768702     0.56274887    -0.63622460     2.10158194
Ti      0.81145802     0.28386602     6.05131198    -0.01557318    -0.48252862    -2.41803292
Ti      4.24609598     4.98550201     3.39170200     1.60774791    -0.26302421     0.52251109
O       3.37549600     3.44144403     4.31551202     0.83652646    -0.48575124     2.26132978
O       0.89669598     2.08083401     0.13796498     0.02154225    -1.33283055     0.05072428
O       4.21002101     3.62116998     9.07256202     0.91367270     0.31000317    -0.22311604
O       3.44478700     0.83621499     0.19937700     0.86290162     0.14796550    -1.32262892
O       1.73862699     4.73455600     9.21590799    -1.69950573    -0.05635706    -1.12271118
O       4.50327199     0.84885799     4.73801603    -1.33682939     0.43723014     0.01999805
O       0.91502600     4.78262397     4.32722398     0.51078634    -1.10548272     1.44539323
O       0.08843102     3.54769599     2.35804499    -0.71437588    -0.62623380     0.35261510
O       0.16504599     1.88795499     6.67364200    -0.23691002     1.58868498     1.43496792
O       2.64460400     2.11419700     2.01055001    -0.05892225     0.68165627     2.02097242
O       2.49945603     3.46124499     7.34037999    -0.35893668    -1.61884583    -2.74417542
O       0.09184803     0.68325800     2.10141699    -0.37848452     0.12787541     0.61163507
O       2.62805001     0.53008098     6.55823802    -0.36830321     1.11777260    -0.15513014
O       2.63889000     4.75023700     2.32695001     0.75998829     0.10220910     1.01164102
