# total energy = -19072.92626682 eV

CRYSTAL
PRIMVEC
        5.93400000     0.00000000     0.00000000
        0.00000000     9.29699974     0.00000000
        0.00000000     0.00000000     4.64899994
PRIMCOORD
22 1
Ti      4.38606399     6.84861499     2.27318200     0.15381502     1.33728010    -0.61423549
Ti      4.39955399     2.31444000     2.08848200    -0.12380895    -0.61946023    -0.17607589
Ti      1.51871701     7.07027702     2.62503598     0.35956274     0.90103778    -0.73233658
Ti      1.58678201     2.38286500     2.25473398     0.35955785     0.18947315    -0.43232524
Ti      2.98341900     4.64317799     4.40182501     1.46126466    -1.41124408     1.39451288
Ti      2.85306999     9.21461500     4.58775101     2.21370727     1.10412724     0.29998126
Ti      5.89364701     4.74385401     4.47187702     0.11712022    -1.05141652     0.91417355
Ti      5.91027402     9.15588701     0.36194703    -1.60740133     0.93653264     0.53029177
O       4.49612000     5.61567999     0.57430501    -0.13211027     1.60862672     4.18693327
O       4.34861899     0.64775698     1.07278299     0.40535976     2.48449879     0.14831388
O       1.67407599     0.88452798     1.11110802    -1.66162206    -0.38087874    -0.91513077
O       4.39589902     8.32684898     3.95945902     0.74275033    -0.27358579    -0.90470160
O       4.54368600     3.89994500     3.59562701    -0.29102096    -2.16716386    -1.59539401
O       1.29220798     8.43712899     3.87932502     0.70256911    -0.05180003    -0.79867416
O       1.54257603     3.87163401     3.64473800    -0.77731548    -0.58043961    -0.46268201
O       2.99345902     6.18159098     3.43345498    -0.56124400     0.41229120    -1.32471666
O       3.13405898     1.42284602     3.19571300    -0.26266502     0.48813466     0.97360719
O       0.06634502     6.23439398     3.31991900    -1.03271276    -1.94690149    -0.09195065
O       2.86800898     7.78334601     1.49255100     0.44856819    -0.26641549    -0.41877038
O       3.00494000     3.07938899     1.09172997     0.70625428     0.88268627     0.83599219
O       5.91157802     8.07465300     1.74350098     0.06452160    -1.59817389    -0.08691000
O       0.18497698     3.27844198     1.45523601    -1.28514968     0.00279119    -0.72990252
