# total energy = -19944.99118103 eV

CRYSTAL
PRIMVEC
        5.82454185     0.00000000     0.00000000
        0.30979202     6.19132826     0.00000000
        0.00000000     0.00000000    10.42790888
PRIMCOORD
24 1
Ti      2.29469866     3.66897524     3.86867982     0.04340924    -0.97990691     0.65680449
Ti      3.83963497     2.52235279     6.55922918    -0.04340924     0.97990691    -0.65680449
Ti      5.14950064     2.52235490     1.34523301     0.00572276     0.43571087    -0.46248429
Ti      0.98483305     3.66897337     9.08267611    -0.00572276    -0.43571087     0.46248429
Ti      2.13980278     0.57331135     1.34527480     0.04340924    -0.97990691    -0.65680449
Ti      3.99453086     5.61801686     9.08263431    -0.04340924     0.97990691     0.65680449
Ti      0.82993716     0.57330905     6.55918733    -0.00572276    -0.43571087    -0.46248429
Ti      5.30439654     5.61801916     3.86872167     0.00572276     0.43571087     0.46248429
O       1.95258722     2.18007184     5.32128208     1.30179089     1.28143186    -0.11750537
O       4.18174641     4.01125619     5.10662691    -1.30179089    -1.28143186     0.11750537
O       1.17788496     2.18009682     0.10736116    -1.07843779     0.88478815     0.21401871
O       4.95644874     4.01123127    10.32054754     1.07843779    -0.88478815    -0.21401871
O       4.02685052     0.91559212     0.10732735    -1.30179089    -1.28143186    -0.11750537
O       2.10748311     5.27573591    10.32058135     1.30179089     1.28143186     0.11750537
O       4.80155285     0.91556719     5.32131596     1.07843779    -0.88478815     0.21401871
O       1.33278073     5.27576096     5.10659304    -1.07843779     0.88478815    -0.21401871
O       0.40005214     3.76591668     2.81683839     0.37283272     0.05454700     0.48643824
O       5.73428155     2.42541135     7.61107067    -0.37283272    -0.05454700    -0.48643824
O       3.24525752     2.42535366     2.39714927     0.48263147     0.52050717    -0.10030957
O       2.88907617     3.76597437     8.03075955    -0.48263147    -0.52050717     0.10030957
O       0.24515625     0.67025261     2.39711599     0.37283272     0.05454700    -0.48643824
O       5.88917744     5.52107542     8.03079283    -0.37283272    -0.05454700     0.48643824
O       2.73418028     0.67031029     7.61110389    -0.48263147    -0.52050717    -0.10030957
O       3.40015341     5.52101774     2.81680505     0.48263147     0.52050717     0.10030957
