# total energy = -19890.42388121 eV

CRYSTAL
PRIMVEC
        8.69526421     0.00000000     0.00000000
        0.00002703     3.08479687     0.00000000
        0.00000000     0.00000000    13.83343196
PRIMCOORD
24 1
Ti      3.15163087     1.82804766     5.13210471     0.03011483     0.21438612     1.96631846
Ti      5.54366001     1.25674891     8.70132766    -0.03011483    -0.21438612    -1.96631846
Ti      7.49911466     1.25674990     1.78455621     0.01788151    -0.21437429    -1.96677329
Ti      1.19617629     1.82804679    12.04887629    -0.01788151     0.21437429     1.96677329
Ti      3.15161771     0.28564929     1.78461168     0.02991454     0.21473347    -1.96624930
Ti      5.54367323     2.79914740    12.04882081    -0.02991454    -0.21473347     1.96624930
Ti      1.19616307     0.28564824     8.70127219    -0.01767197     0.21466020    -1.96647556
Ti      7.49912788     2.79914845     5.13216019     0.01767197    -0.21466020     1.96647556
O       2.75211541     1.08620932     7.05909461     2.39101164     0.29527717    -1.28592204
O       5.94317554     1.99858731     6.77433777    -2.39101164    -0.29527717     1.28592204
O       1.59558631     1.08622185     0.14242296    -2.39240312     0.29530853    -1.28707724
O       7.09970470     1.99857478    13.69100900     2.39240312    -0.29530853     1.28707724
O       5.94316232     0.45618881     0.14237803    -2.39188582    -0.29510799    -1.28613236
O       2.75212863     2.62860776    13.69105393     2.39188582     0.29510799     1.28613236
O       7.09969148     0.45617635     7.05913947     2.39177166    -0.29514527    -1.28726596
O       1.59559935     2.62862028     6.77429290    -2.39177166     0.29514527     1.28726596
O       0.31593529     1.87634832     3.73675515    -1.08071219     0.43918752     1.77457837
O       8.37935566     1.20844825    10.09667716     1.08071219    -0.43918752    -1.77457837
O       4.66357889     1.20841966     3.18000498    -1.07879441    -0.43912324    -1.77736725
O       4.03171205     1.87637697    10.65342716     1.07879441     0.43912324     1.77736725
O       0.31592207     0.33394988     3.17996083    -1.08110069     0.43904688    -1.77617914
O       8.37936888     2.75084675    10.65347131     1.08110069    -0.43904688     1.77617914
O       4.03169889     0.33397848    10.09672126     1.07838971     0.43906565    -1.77543687
O       4.66359205     2.75081809     3.73671100    -1.07838971    -0.43906565     1.77543687
