# total energy = -4987.52922905 eV

CRYSTAL
PRIMVEC
        4.18868885     0.00000000     0.00000000
        0.41781461     4.16779861     0.00000000
       -2.30328888    -2.08393292     5.35241044
PRIMCOORD
6 1
Ti      0.31320045     3.12600750     1.33810235    -0.00128041     0.00128041     0.00000000
Ti      1.99001376    -1.04214214     4.01430746     0.00128041    -0.00128041     0.00000000
O       0.10449781     1.04194306     0.87186383    -0.00057310    -0.00180312    -1.06001018
O       2.19871628     1.04192219     4.48054609     0.00057310     0.00180312     1.06001018
O      -0.10447463    -1.04192209     3.54806894    -0.00180312    -0.00057310    -1.06001018
O       2.40768865     3.12578728     1.80434098     0.00180312     0.00057310     1.06001018
