# total energy = -19960.58045421 eV

CRYSTAL
PRIMVEC
        7.60600008     0.00000000     0.00000000
        0.00000000     7.60600008     0.00000000
       -1.89786986    -1.89786986     4.85670466
PRIMCOORD
24 1
Ti      3.81825098     6.81992501     1.10563897     1.80107309    -1.60671047    -0.12619185
Ti      3.82746401     2.78982299     1.14924202    -1.49342145     1.39895523     0.72634745
Ti     -0.01560898     6.61143901     1.24036999    -1.75512977     0.38979635    -0.85366724
Ti     -0.13979598     2.77074398     1.36367199     0.72958499     0.15748733    -1.18566749
Ti      5.62405925     2.80053523     3.75937081    -0.13792585    -0.01325301    -0.19301330
Ti      5.67035125    -0.93475579     3.62502382     0.81649216    -0.07817159     0.16949464
Ti      1.97690524     2.82138222     3.68724680     0.23717844     0.11196696    -0.47578359
Ti      2.04088023    -0.93996776     3.48094880    -1.11231106    -0.03787648     1.09614473
O       4.03205500     4.76954700     0.85624001    -1.09310157     0.55161085    -0.97759498
O       4.03835998     0.97871698     0.63135598    -0.81552440    -0.25325890     0.55559966
O       7.27090298     4.68562002     0.80807901     0.98080654     1.18818023     0.83451303
O      -0.06723599     0.99046101     0.68618800     0.10360598    -1.35341481     1.84836521
O       5.45913422     4.74409421     4.03908279     0.80113624    -0.16881895     0.43191207
O       5.79747021     0.91961523     4.23048683     0.06722512     0.74493062    -1.30488136
O       2.20728922     4.83261921     3.92850379    -1.20602601    -1.01456540     0.80134810
O       1.80701823     0.93704025     4.03501982    -0.20528775     0.18829815     0.15895388
O       3.79517325     2.59421521     3.26927679    -0.44889190     0.11605733    -0.01612134
O       3.81979724    -0.84932277     3.13709979     0.10526717     0.52650762    -0.48844576
O      -0.04541680     2.90947124     3.21386182     0.11707857     0.08979967     1.33589479
O      -0.08550277    -1.01311080     3.11623682     1.59494947    -0.44357717     0.93558879
O       5.73201299     6.93512102     1.67451002    -1.04908581    -0.48226123    -0.80765219
O       5.55488599     2.85887702     1.75614699     1.76325575    -0.53738776    -0.46674770
O       1.91619702     6.72161297     1.61100002     0.15515739     0.05966556    -1.59960317
O       1.91849301     2.71968102     1.72137698     0.04389492     0.46603962    -0.39879213
