# total energy = -19517.53128045 eV

CRYSTAL
PRIMVEC
        5.17600016     0.00000000     0.00000000
        0.00000000     5.50899976     0.00000000
        0.00000000     0.00000000     9.26300011
PRIMCOORD
23 1
Ti      1.85861200     3.28104802     3.51802301    -1.03886233    -1.53356847     2.27897501
Ti      3.42219901     2.17511398     5.84583399    -1.38178591     0.95168802    -2.12437298
Ti      4.37110600     2.09876201     1.39153101    -0.12449389    -0.05523554     0.40814967
Ti      0.85649000     3.36747103     7.77616100     1.16362516     1.04540142     0.50003938
Ti      2.03505600     0.33676703     1.39085398    -1.78591052    -0.10546463    -1.59053386
Ti      3.26077497     5.19967899     8.00249598     0.51247479    -2.16575772    -1.52351391
Ti      0.69416699     0.54986401     5.92293200     0.23059230    -0.07477259    -3.12543442
Ti      4.46860300     4.85364099     3.33640398     0.86172251     0.04044552     2.34913375
O       1.63662998     1.92547900     4.81663298     0.46966487     0.17323354    -0.13464898
O       3.52498402     3.58601499     4.41121600     0.43428931    -0.56248250     1.32300096
O       5.06699600     2.98291501     9.24387299    -0.26079917    -0.20094104     0.24392476
O       3.35828599     0.90728598     9.24564198     0.98186815     2.74771377     2.32728425
O       1.96350298     4.61652201     9.19031798    -1.35099514    -1.32055841    -0.64044687
O       4.30828901     0.85587297     4.81523801    -0.34487197    -0.55255727    -1.11154564
O       0.90410198     4.69619499     4.52766399     0.19289400    -0.11261976    -0.10004320
O       0.21434600     3.30608001     2.56915698    -0.98789662    -0.21542587    -0.85752441
O       5.07755800     2.13902202     6.75579301     0.10787119    -0.53835321     0.72102553
O       2.63250500     1.86138500     2.24105899     0.25098758     1.63227393     0.05127193
O       2.64610798     3.53349203     7.01673100    -0.56040711    -0.98269733     0.63879262
O       0.03733298     0.53891401     1.92106402     1.48632546    -0.02108074    -0.35695538
O       5.07357901     4.78472401     7.15829898    -0.57761037     0.87080494     0.60385183
O       2.44957599     0.67501601     6.71007702    -0.01807795     0.47687888     0.69880322
O       2.67264902     4.60533700     2.45267702     1.73939513     0.50307509    -0.57923299
