# total energy = -19070.98729375 eV

CRYSTAL
PRIMVEC
        5.17600016     0.00000000     0.00000000
        0.00000000     5.50899976     0.00000000
        0.00000000     0.00000000     9.26300011
PRIMCOORD
22 1
Ti      1.33582399     3.09102301     3.27578800     3.13758443    -0.71018806     1.49982042
Ti      4.56601701     3.13485000     5.56363202     0.31092234    -1.16637110    -0.61708710
Ti      4.19119399     2.03436002     1.63810802    -0.55891304    -2.11215715     0.16264239
Ti      1.19426902     3.03077999     8.15753999     2.53127900    -1.75196603     0.07831583
Ti      1.60677200     0.40340399     1.12804598     1.00032919     0.33009043     1.51533626
Ti      3.41861701     5.24711502     7.90931797    -1.56684087     0.40230272     0.54881683
Ti      1.32661498     0.33806399     6.02195101     1.86250885    -0.05804653    -2.33365391
Ti      3.90209801     4.94800001     3.62043902    -1.87483189     1.92918838     1.22272224
O       3.10190400     3.09829898     4.54637300     0.63053449     1.18186894    -0.07204002
O       0.74967202     2.18590300     0.66076702    -0.72286618    -0.41092800    -1.60409437
O       4.88170199     3.57318201     7.42025199    -2.89229930     1.58515485     0.07808495
O       3.50091101     0.47080900     0.56632899     0.20962983     0.98541808    -1.89133118
O       1.93994999     4.38488800     9.12236802    -0.27400051     0.61480010     0.80051584
O       2.96265599     0.35837000     5.06083500     0.99042196    -0.36458848    -1.05262159
O       0.49878200     4.55957402     4.72165302    -1.42272303     0.50653965     0.97215658
O       4.79709898     3.44052701     2.80335802    -0.77004491    -0.06122030    -2.36556774
O       0.79816302     2.08187998     4.78948899    -1.14679394    -1.25469058     1.53565210
O       2.34516900     1.61341100     2.52342802     1.23831368     1.56174135    -0.93558776
O       2.19117101     4.21807699     6.74079401     0.31954865    -0.32357808     1.30730823
O       5.06219202     0.73072298     2.50839499    -0.22401439    -1.00491527     0.47994363
O       2.35354000     1.24245400     7.38287901    -0.45758043     1.03122718     1.34675771
O       2.26514301     4.68036597     2.61881799    -0.32016417    -0.90968209    -0.67608957
