# total energy = -4988.78207860 eV

CRYSTAL
PRIMVEC
        3.78372464     0.00000000     0.00000000
        1.28494455     3.55886072     0.00000000
       -2.53436911    -1.77945460     4.90686207
PRIMCOORD
6 1
Ti      0.96359932     2.66928205     1.22671557     0.00064818    -0.00064818     0.00000000
Ti      1.57070009    -0.88987639     3.68014660    -0.00064818     0.00064818     0.00000000
O       0.32127555     0.88971028     0.79928779    -0.00022009    -0.00010079    -1.20623915
O       2.21302368     0.88969526     4.10757449     0.00022009     0.00010079     1.20623915
O      -0.32124487    -0.88968878     3.25271882    -0.00010079    -0.00022009    -1.20623915
O       2.85554404     2.66909428     1.65414346     0.00010079     0.00022009     1.20623915
