# total energy = -4987.04951023 eV

CRYSTAL
PRIMVEC
        2.74772995     0.00000000     0.00000000
        0.42945417     4.28380820     0.00000000
       -0.00000286    -0.00005587     4.31068596
PRIMCOORD
6 1
Ti      1.58859068     2.14187616     2.15534298     0.00000000     0.00000000     0.00000000
Ti      0.00000000     0.00000000     0.00000000     0.00000000     0.00000000     0.00000000
O       1.45755871     0.83484027     0.84008919    -1.83676927     1.34362919     1.38891507
O       1.71962270     3.44891205     3.47059672     1.83676927    -1.34362919    -1.38891507
O       0.13103080     1.30701324     2.99543305     1.83596940    -1.34138307     1.38662113
O       0.29842070     2.97673898     1.31525286    -1.83596940     1.34138307    -1.38662113
