# total energy = -4982.38297540 eV

CRYSTAL
PRIMVEC
        3.82125462     0.00000000     0.00000000
        0.00000000     2.56599987     0.00000000
        0.00000000    -0.00008224     5.09126997
PRIMCOORD
6 1
Ti      1.91062731     1.28295877     2.54563489     0.00000000     0.00000000     0.00000000
Ti      0.00000000     0.00000000     0.00000000     0.00000000     0.00000000     0.00000000
O       1.91062731     0.50005955     0.99221351     0.00000000    -2.25795906    -1.72611615
O       1.91062731     2.06585804     4.09905626     0.00000000     2.25795906     1.72611615
O       0.00000000     0.78286661     3.53784937     0.00000000     2.25755925    -1.72650361
O       0.00000000     1.78305093     1.55342035     0.00000000    -2.25755925     1.72650361
