# total energy = -4985.80381592 eV

CRYSTAL
PRIMVEC
        3.84498945     0.00000000     0.00000000
        0.00000000     4.01634801     0.00000000
        0.00000000    -0.00007019     5.22961934
PRIMCOORD
6 1
Ti      1.92249455     2.00813885     2.61480961     0.00000000     0.00000000     0.00000000
Ti      0.00000000     0.00000000     0.00000000     0.00000000     0.00000000     0.00000000
O       1.92249455     0.78271338     1.01917576     0.00000000     0.44513963     0.89631852
O       1.92249455     3.23356432     4.21044341     0.00000000    -0.44513963    -0.89631852
O       0.00000000     1.22539738     3.63398652     0.00000000    -0.44507381     0.89635220
O       0.00000000     2.79088032     1.59563271     0.00000000     0.44507381    -0.89635220
