# total energy = -19068.20342099 eV

CRYSTAL
PRIMVEC
        5.93400000     0.00000000     0.00000000
        0.00000000     9.29699974     0.00000000
        0.00000000     0.00000000     4.64899994
PRIMCOORD
22 1
Ti      4.50703402     6.69828002     2.60935000     2.92044723     0.65491935    -0.62435355
Ti      4.14670802     2.60231300     2.31823102     2.71908864    -4.80773510    -2.62783373
Ti      1.60175302     7.57517800     2.08572303    -0.62300167     0.81042487     2.25404455
Ti      1.51595000     2.25725499     2.59966299    -2.23090693    -0.06428763    -0.86341919
Ti      3.11049001     4.85896203     4.32369098    -2.54831308    -2.74931351     0.85562205
Ti      3.17534799     9.19640601     0.19802702    -3.14811310    -1.61691853    -2.34500225
Ti      5.68507799     4.24247699     4.43861299     3.64419761    -0.14224402     3.16764089
Ti      0.03180900     0.10814002     0.07648903     0.80932238    -0.54314446     0.34271764
O       4.35740301     5.28532098     0.89453398     0.60193275     0.82794720     0.40030291
O       4.38885302     0.77613501     0.91004998     1.52803803     2.82360659     2.09732445
O       1.51313398     0.49220702     1.32006001     0.99695899     0.35086418     0.05292721
O       4.54794402     8.32209099     3.80561598    -0.19501516     0.12367911    -0.30802881
O       4.55899600     4.04639798     3.15388699    -3.46071617     1.27279835     0.95158543
O       1.33336501     8.40975598     3.80696601     1.50458339    -0.19099190    -2.04379123
O       1.24701598     4.07047099     3.45702099     3.22042386    -2.74856866     1.66402758
O       2.86826902     6.12664502     3.13344800    -1.73242924     1.10279669     0.14543090
O       3.09720099     1.39342800     3.32132201    -0.58592275     0.06056056     1.10280929
O       0.02724099     5.82520301     3.25366199    -0.08119315     3.41992200    -0.25981907
O       3.43588698     7.75192500     1.54966298    -2.93778290     1.98924011    -2.77628285
O       2.68332401     3.27110197     1.61476300    -0.97959350     0.98718854    -2.78738745
O       0.02315299     7.93663998     1.22505602    -0.06542380    -2.69148167     2.09340685
O       5.84626898     2.64777203     1.42344098     0.64341829     1.13073791    -0.49192164
