# total energy = -4974.45587421 eV

CRYSTAL
PRIMVEC
        4.75393526     0.00000000     0.00000000
       -0.00000720     2.85236116     0.00000000
       -2.37699441    -1.42623261     5.17724055
PRIMCOORD
6 1
Ti     -0.00020377     2.13937226     1.29430979    -0.00987921    -0.01288457    19.27244803
Ti      2.37713727    -0.71324382     3.88293012     0.00987921     0.01288457   -19.27244803
O       0.00005035     0.71308113     0.84333007     0.00866591     0.01316971   -11.31344560
O       2.37688305     0.71304726     4.33390990    -0.00866591    -0.01316971    11.31344560
O      -0.00001958    -0.71309062     3.43195035    -0.00230551    -0.00022060    -1.56038689
O       2.37695293     2.13921896     1.74528957     0.00230551     0.00022060     1.56038689
