# total energy = -19961.34302814 eV

CRYSTAL
PRIMVEC
        5.93400000     0.00000000     0.00000000
        0.00000000     9.29699974     0.00000000
        0.00000000     0.00000000     4.64899994
PRIMCOORD
24 1
Ti      4.43317299     6.85248602     2.28335099     0.08925614     0.67855423     0.48567231
Ti      4.45996301     2.32634500     2.33673799     0.03019659    -0.61934556     0.43546765
Ti      1.49171500     7.01444802     2.34150699    -0.08740083     0.14462923    -0.06821139
Ti      1.46736301     2.42244798     2.32283502    -0.01271514    -1.33727367    -0.06334069
Ti      2.94363497     4.66194097     0.01724202     0.11427812    -0.63648274    -0.02747225
Ti      2.99552699     9.26055700     4.58879402     0.02914064     0.70586141     0.12841148
Ti      0.00819701     4.65952898     0.02786298    -0.19580192    -0.32626206    -0.34605313
Ti      5.92977600     9.22850003     0.08736701     0.12074805     0.91955847    -0.12290238
O       4.42440998     5.58632901     0.83921903     0.16083542     0.08246816     0.40119869
O       4.47436097     0.94223100     0.80323799    -0.30070657     0.03736843     0.53235971
O       1.51628200     5.60763200     0.89843602    -0.19379183    -0.31055981    -0.22760365
O       1.47895299     0.90053897     0.93598798     0.05819308    -0.06186385    -0.46676878
O       4.47477199     8.43618701     3.68731099    -0.28672876    -0.56043950     0.15576237
O       4.48219698     3.73627502     3.75551898    -0.22667188     0.33124486     0.24827867
O       1.44658502     8.39898002     3.76025601     0.33858716    -0.32798572    -0.53414354
O       1.47272500     3.68967398     3.83734502     0.12890462     0.32673643    -0.27123940
O       2.90514902     6.14162799     3.27942498     0.46692253    -0.57331225    -0.21426836
O       2.98848899     1.45108001     3.20351800    -0.22582522    -0.16963811     0.06797305
O       0.01147098     5.97560699     3.14718099    -0.08396198     0.33680435     0.36713284
O       0.00460400     1.40947302     3.12113902     0.16906141     0.25845947     0.30096008
O       2.99215899     7.82921102     1.37818801    -0.20628945     0.27840250     0.08209355
O       3.00256600     3.26410800     1.41244102    -0.39008123     0.39123977    -0.09292870
O       5.87762299     7.82496601     1.42829099     0.22729229     0.40921976    -0.26226650
O       5.92646600     3.35995999     1.50244402     0.27655876     0.02261595    -0.50811162
