# total energy = -39040.53979669 eV

CRYSTAL
PRIMVEC
        7.60629642    -0.00000847    -0.00005503
       -0.00000847     7.60629642    -0.00005503
       -3.80314186    -3.80314186     9.70738094
PRIMCOORD
46 1
Ti      1.90146070     4.75417704     6.10189472    -0.00017946    -0.00016635     0.31938821
Ti      3.78458183     6.65561546     1.22751046    -0.03186549     0.00007225     0.02550252
Ti      1.90148142     0.95102883     6.10190346    -0.00037538    -0.00016609     0.31937638
Ti      3.78458605     2.85247874     1.22753797    -0.03186575    -0.00009153     0.02550278
Ti     -1.90157950     4.75389930     5.91177408    -0.00080424    -0.00043246     0.08618907
Ti      0.01827341     6.65564145     1.22749849     0.03237869     0.00025608     0.02521456
Ti     -1.90159314     0.95075108     5.91185297    -0.00066180    -0.00043375     0.08609136
Ti      0.01827753     2.85250880     1.22752614     0.03237920     0.00012367     0.02521405
Ti      3.73124289     0.95074304     8.53336976     0.01878114     0.00015838    -0.12748845
Ti      5.70489548     2.85230312     3.58987258    -0.00001980     0.00029413    -0.04578519
Ti      3.73126358    -2.85240516     8.53341608     0.01872947     0.00015915    -0.12766792
Ti      5.70489986    -0.95081212     3.58989996    -0.00002005     0.00000617    -0.04578417
Ti      0.07178741     0.95073533     8.53349287    -0.01708344     0.00024451    -0.12847550
Ti      1.90174665     2.85221805     3.65820940    -0.00026328     0.00000566     0.08596204
Ti      0.07178865    -2.85241287     8.53354013    -0.01685924     0.00024400    -0.12864417
Ti      1.90175095    -0.95094028     3.65823693    -0.00026354     0.00014964     0.08596178
O       1.90157916     2.85232389     5.71900878     0.00003780     0.00011827    -0.00015787
O       3.77436205     4.75393012     0.79301639     0.01559195     0.00005836     0.01444292
O       1.90158339    -0.95081637     5.71903627     0.00003780    -0.00024400    -0.00015735
O       3.77438033     0.95078192     0.79304116     0.01552124     0.00005785     0.01436810
O      -1.90149128     2.85232340     5.58606916    -0.00001928    -0.00009693    -0.08477804
O       0.02878580     4.75393585     0.79300060    -0.01589714     0.00011313     0.01452571
O      -1.90148703    -0.95081317     5.58609661    -0.00001928    -0.00013293    -0.08477804
O       0.02879473     0.95078770     0.79305659    -0.01586551     0.00011210     0.01384514
O       4.00519249     2.85231820     8.86306410     0.08655673     0.00072711     0.11960622
O       5.70467289     4.75391928     3.98622926     0.00005014     0.00003265    -0.13566328
O       4.00519664    -0.95077722     8.86309162     0.08655699    -0.00051448     0.11960571
O       5.70466681     0.95077103     3.98629504     0.00003651     0.00003240    -0.13588337
O      -0.20196127     2.85234215     8.86306681    -0.08748465     0.00017021     0.12007545
O       1.90155435     4.75391235     4.10872473     0.00008305    -0.00010413     0.06706134
O      -0.20195698    -0.95080030     8.86309436    -0.08748465     0.00004217     0.12007519
O       1.90155684     0.95076414     4.10876334     0.00013010    -0.00010362     0.06697469
O       1.90151654     0.95082405     8.11781856     0.00068828     0.00000386     0.04610093
O       3.80156894     2.85239371     3.21703262    -0.02014306    -0.00006813    -0.05938222
O       1.90152934    -2.85232431     8.11785657     0.00078239     0.00000411     0.04605567
O       3.80157317    -0.95073943     3.21706003    -0.02014203    -0.00011184    -0.05938171
O       0.00161565     2.85240282     3.21706739     0.02011503    -0.00004319    -0.05961851
O       0.00162002    -0.95072354     3.21709485     0.02011323    -0.00013087    -0.05961825
O       3.91161349     4.75384194     6.55654584    -0.05586546    -0.00007662    -0.09563093
O       5.70471743     6.65550033     1.58005072     0.00023603    -0.00006479    -0.07278436
O       3.91156970     0.95069362     6.55660242    -0.05546977    -0.00007636    -0.09620866
O       5.70472160     2.85231989     1.58007834     0.00023628     0.00008613    -0.07278487
O      -0.10841580     4.75386108     6.55656712     0.05512319    -0.00011904    -0.09630070
O       1.90156621     6.65547935     1.67481038    -0.00028462    -0.00006993    -0.01689344
O      -0.10841302     0.95071278     6.55660577     0.05505737    -0.00011904    -0.09637964
O       1.90157047     2.85230197     1.67483795    -0.00028591     0.00009385    -0.01689318
