# total energy = -19073.73269641 eV

CRYSTAL
PRIMVEC
        5.17600016     0.00000000     0.00000000
        0.00000000     5.50899976     0.00000000
        0.00000000     0.00000000     9.26300011
PRIMCOORD
22 1
Ti      1.91019599     3.36051102     3.27169799    -1.06751754     0.25741252     0.33358430
Ti      3.60659300     2.34212501     5.90048398     0.06488001    -0.50579249    -0.59433026
Ti      4.18952100     2.25487702     1.28268099     1.54167054    -0.13479425    -1.44399301
Ti      0.78999099     3.17150198     8.03911399     0.22806619     0.26980164     1.12861932
Ti      1.69559398     0.43571502     1.29466701    -0.18293431     0.86503230    -1.56929602
Ti      3.27158199     4.97057202     8.05508101     0.21569430     0.88028074     1.19334558
Ti      1.24478798     0.24643398     6.04056201    -0.03971842    -0.25458662    -0.71224778
Ti      4.30889799     5.07389202     3.44003297    -0.02955381     0.03313022     1.41043907
O       3.54522299     3.38578902     4.36066999    -0.75748532     0.69178050     0.71288181
O       0.88466498     2.01665502     0.31997401    -0.60277428    -0.26306920    -1.26971534
O       4.21094199     3.56756702     8.85306200     0.61366470    -0.62497499     0.49685481
O       3.27486802     0.80013997     0.32703800     1.37248237    -0.04090395    -1.79694132
O       1.72712299     4.62938800     9.02154902    -1.79870459    -0.25405285     0.64436163
O       3.43090800     0.85085701     4.69943800     1.48245929    -0.88345837    -0.22759542
O       1.09150301     4.97122301     4.33417298    -1.48242381    -0.37096430     0.65025614
O       5.12496202     3.27492300     2.50443601     1.55414913     1.03068365     0.59410966
O       0.28071901     2.16234302     6.51632797    -0.74929044    -1.55742755    -0.95477129
O       2.64581402     1.85648402     2.29533098    -1.04077112     1.00154507     1.29517030
O       2.34122298     3.88671900     6.75654100    -0.42843388    -0.00089346    -0.30010339
O       5.07157798     0.65515599     2.10377099     0.60846310    -0.53923535     0.57257100
O       2.64152001     1.05216302     7.06470499     0.23348582     0.43524653    -0.01546108
O       2.74547302     4.64193802     2.28030499     0.26459207    -0.03475927    -0.14773898
