# total energy = -39040.35002401 eV

CRYSTAL
PRIMVEC
        7.60629642    -0.00000847    -0.00005503
       -0.00000847     7.60629642    -0.00005503
       -3.80314186    -3.80314186     9.70738094
PRIMCOORD
46 1
Ti      1.90909559     4.75023472     6.07095936     0.02398454    -0.05281716     0.01358520
Ti      3.80306411     6.64455408     1.20477173     0.00036098     0.00690727     0.02131368
Ti      1.80836074     0.96004036     6.01312237     0.07234341     0.00436239     0.07889047
Ti      3.80292125     2.85976900     1.20803387     0.00021597     0.00712941    -0.04377690
Ti     -1.90945495     4.75020552     6.07097307    -0.02386396    -0.05289635     0.01376672
Ti     -0.00005947     6.69049785     1.37421887     0.00042038    -0.13987269    -0.15116755
Ti     -1.80830801     0.96000812     6.01330402    -0.07238044     0.00437808     0.07833974
Ti     -0.00020257     2.80454228     1.17858834    -0.00004165    -0.04676633    -0.15685535
Ti      3.80313634     0.89226800     8.60862590     0.00003728     0.01844253     0.00519414
Ti      5.71008420     2.85831711     3.62164592    -0.00109940    -0.00445161    -0.01977359
Ti      3.80322335    -2.79913589     8.45762173     0.00026277     0.03351537     0.16466893
Ti      5.66920623    -0.95808669     3.65522610     0.07671969     0.00133055     0.03338244
Ti      0.00017351     0.96607445     8.46820461     0.00026071    -0.05312158    -0.27292476
Ti      1.89654385     2.85839934     3.62164114     0.00086955    -0.00466604    -0.01980804
Ti      0.00009070    -2.85931173     8.50372569    -0.00022883    -0.04608318    -0.06491189
Ti      1.93728843    -0.95806083     3.65522124    -0.07727376     0.00139200     0.03329400
O       1.99029042     2.83185888     5.65798534     0.00525482     0.01453599    -0.11141777
O       3.80318138     4.75364161     0.78012568    -0.00008073    -0.03202182    -0.10836227
O       2.01686976    -0.92796682     5.69594901     0.04965239    -0.00044814    -0.02985000
O       3.80317594     0.94946167     0.76827817    -0.00009333     0.04803234    -0.00112049
O      -1.99028183     2.83184716     5.65799924    -0.00531936     0.01408682    -0.11120205
O       0.00008601     4.85342722     0.78564736    -0.00008947    -0.02140727     0.11444576
O      -2.01685712    -0.92796014     5.69598317    -0.04967347    -0.00031367    -0.02954430
O       0.00011335     0.86457514     0.74638775     0.00002597     0.03487651     0.21835847
O       5.71744957     4.75395761     4.08829480     0.02560383    -0.02162941    -0.02609516
O       3.80309533    -0.95747746     8.91545894    -0.00015658     0.06787741    -0.03020122
O       5.67048847     0.95258603     4.04442193     0.00234588     0.02571387     0.01075981
O       0.00000234     2.83206857     8.88670104    -0.00006299     0.05969512     0.10420994
O       1.88872839     4.75397257     4.08831721    -0.02546833    -0.02142552    -0.02622732
O      -0.00003144    -0.93051154     8.85935419    -0.00005399    -0.02522742    -0.01275756
O       1.93577243     0.95259836     4.04441074    -0.00194067     0.02575629     0.01051607
O       2.02816357     1.05990612     8.01482691    -0.01120179     0.10722430     0.10351394
O       3.80314701     2.86736152     3.17598761     0.00024220     0.05207489    -0.00776859
O       1.91795900    -2.95080415     8.09867744    -0.00847282    -0.02689221    -0.06077087
O       3.80316645    -0.96465095     3.21742899    -0.00004165    -0.05411377     0.07283835
O      -2.02827925     1.05992213     8.01480529     0.01167127     0.10739039     0.10296783
O       0.00001032     2.83874739     3.23004215    -0.00008973    -0.02375032    -0.01436887
O      -1.91793054    -2.95079852     8.09869512     0.00823987    -0.02691046    -0.06088323
O      -0.00000492    -0.93412012     3.30268528     0.00006788     0.02803223     0.09112764
O       3.80312214     4.71696756     6.47451242    -0.00008845     0.01230453     0.09942768
O       5.69023406     6.65599725     1.66113786    -0.02707218     0.01412565     0.04052343
O       5.72282571     2.85481178     1.60249527    -0.03842875    -0.01296428     0.03169400
O      -0.00000157     4.76871183     6.48735018    -0.00030725     0.04455903    -0.06221481
O       1.91607110     6.65599661     1.66113622     0.02714032     0.01407242     0.04068772
O       0.00003742     0.93312449     6.48447411    -0.00047231    -0.06717987    -0.09303129
O       1.88348459     2.85483636     1.60254669     0.03828271    -0.01285603     0.03152816
