# total energy = -4987.18839026 eV

CRYSTAL
PRIMVEC
        3.63434565     0.00000000     0.00000000
        0.00000000     3.41668462     0.00000000
        0.00000000    -0.00006729     4.85928473
PRIMCOORD
6 1
Ti      1.81717267     1.70830877     2.42964247     0.00000000     0.00000000     0.00000000
Ti      0.00000000     0.00000000     0.00000000     0.00000000     0.00000000     0.00000000
O       1.81717267     0.66584844     0.94700308    -0.00000000    -0.93411246    -0.38158425
O       1.81717267     2.75076910     3.91228191    -0.00000000     0.93411246     0.38158425
O       0.00000000     1.04243346     3.37664649     0.00000000     0.93408675    -0.38122352
O       0.00000000     2.37418407     1.48263845     0.00000000    -0.93408675     0.38122352
