# total energy = -19924.87084536 eV

CRYSTAL
PRIMVEC
        6.20195293     0.00000000     0.00000000
        2.53878038     6.09299086     0.00000000
        0.00000000     0.00000000    11.33808795
PRIMCOORD
24 1
Ti      3.75238859     3.61070085     4.20634976     0.14405434    -2.50031391     0.70678444
Ti      4.98834481     2.48229017     7.13173832    -0.14405434     2.50031391    -0.70678444
Ti      6.38308619     2.48229225     1.46264895    -0.82444407    -1.06158009     0.33471430
Ti      2.35764726     3.61069903     9.87543919     0.82444407     1.06158009    -0.33471430
Ti      2.48299853     0.56420540     1.46269440     0.14405434    -2.50031391    -0.70678444
Ti      6.25773492     5.52878581     9.87539374    -0.14405434     2.50031391     0.70678444
Ti      1.08825705     0.56420316     7.13169280     0.82444407     1.06158009     0.33471430
Ti      7.65247639     5.52878805     4.20639521    -0.82444407    -1.06158009    -0.33471430
O       2.85690498     2.14544572     5.78573951     1.80942506     2.14073214    -0.88181775
O       5.88382837     3.94754532     5.55234856    -1.80942506    -2.14073214     0.88181775
O       2.03201347     2.14547034     0.11673197    -0.11666719    -0.79647098     1.53011291
O       6.70872001     3.94752079    11.22135573     0.11666719     0.79647098    -1.53011291
O       4.61443828     0.90104974     0.11669516    -1.80942506    -2.14073214    -0.88181775
O       4.12629513     5.19194128    11.22139254     1.80942506     2.14073214     0.88181775
O       5.43932985     0.90102517     5.78577626     0.11666719     0.79647098     1.53011291
O       3.30140344     5.19196594     5.55231175    -0.11666719    -0.79647098    -1.53011291
O       1.76956146     3.70610261     3.06270044     0.61944969     2.57586606     2.44055322
O       6.97117188     2.38688843     8.27538764    -0.61944969    -2.57586606    -2.44055322
O       4.32084667     2.38683173     2.60637967     0.83684040     1.93050658     1.30250232
O       4.41988667     3.70615931     8.73170823    -0.83684040    -1.93050658    -1.30250232
O       0.50017136     0.65960698     2.60634342     0.61944969     2.57586606    -2.44055322
O       8.24056204     5.43338405     8.73174441    -0.61944969    -2.57586606     2.44055322
O       3.15049658     0.65966374     8.27542377    -0.83684040    -1.93050658     1.30250232
O       5.59023676     5.43332730     3.06266425     0.83684040     1.93050658    -1.30250232
