# total energy = -19072.58822454 eV

CRYSTAL
PRIMVEC
        5.17600016     0.00000000     0.00000000
        0.00000000     5.50899976     0.00000000
        0.00000000     0.00000000     9.26300011
PRIMCOORD
22 1
Ti      1.76375698     3.31530902     3.18501097     1.21230824     1.00627899    -0.09958041
Ti      3.55413200     2.26926101     6.01856602     0.71745118    -0.51889740    -0.23995858
Ti      4.45837199     2.12852098     1.23361001    -0.58370363    -0.66206394    -1.22665346
Ti      0.72981697     3.31393300     8.09677198     0.35808590     0.94447093     1.90945515
Ti      1.79959599     0.48873599     1.31422202    -0.44251839     0.89007999    -1.77830056
Ti      3.22758699     5.02260099     7.99464802     1.01435380     2.34920806     1.49937999
Ti      0.57419902     0.42181899     5.96843399     1.68479439     0.15763362    -0.76385189
Ti      4.38138400     4.89920299     3.47822200    -0.31047136     0.20380808     0.39019102
O       3.35368501     3.40951400     4.56006499    -0.82709128     0.28596848     0.07908202
O       0.93756302     2.11399998     0.33760598    -0.58704812    -0.45905727    -0.90889045
O       4.44013199     3.96733101     9.08207499     0.10900196    -1.31000943    -0.00641619
O       3.37939302     0.90388300     0.06446601     0.94279637     1.29619231     0.13099364
O       1.50525802     4.89236697     9.18817899    -0.05557981    -0.53133821    -2.29165492
O       4.70830002     1.00122997     4.60544501    -2.76951416     1.07529436     0.52319835
O       0.85159098     4.76982699     4.31556203     1.82372117    -2.29329503     1.18246158
O       0.04361003     3.41334799     2.43983902    -0.00432640    -0.50574646     0.63946419
O       0.39714599     2.42525903     6.43693900    -1.18065307    -0.95393259     0.68499253
O       2.76870898     1.90703400     2.27148800    -0.47480091     0.63616366     1.35987599
O       2.67573402     3.40579700     7.63696097    -1.65983437    -3.43329174    -2.97870176
O       0.00101501     0.45917202     2.16968102     0.50321187     1.82788328    -1.61009610
O       2.52037498     0.46433801     6.34806998    -0.27543056     1.36509816     0.51365492
O       2.66267498     4.60701100     2.08517199     0.80524693    -1.37044734     2.99135494
