# total energy = -19518.60412974 eV

CRYSTAL
PRIMVEC
        7.60600008     0.00000000     0.00000000
        0.00000000     7.60600008     0.00000000
       -1.89786986    -1.89786986     4.85670466
PRIMCOORD
23 1
Ti      3.81714299     6.66821799     1.25941100    -0.11196079    -1.11311762     0.09543116
Ti      3.67593802     2.76533600     1.26630100     1.01872493     0.65527982     0.17814563
Ti     -0.02149597     6.68720402     1.16786599     0.29012982     0.31244649    -1.08578909
Ti     -0.00330598     2.92345401     1.07228800    -0.75323863    -0.16541661     2.25063347
Ti      5.64777623     2.85953125     3.54001482    -0.12616922     2.27326381     0.96433476
Ti      5.76022624    -0.80192780     3.62431382    -0.83447241    -2.57501322    -0.05916496
Ti      1.85968322     2.74964023     3.74450680     1.21520948    -0.00242841     0.43146367
Ti      1.87965722    -1.06173578     3.65681080     0.97379411     0.32452245    -0.41381072
O       3.93651601     4.67829901     0.77751601    -1.13538235    -0.21061456     1.21327009
O       3.97712698     0.88940699     0.74972399    -0.86128054     0.50069424     0.85232667
O      -0.07521598     4.83422399     0.75196601     0.41402772    -0.43012078     0.31881742
O      -0.15159701     0.96234402     0.72183402     0.43032930     0.51518910     0.03996884
O       5.83538623     4.82508124     3.93642182     0.26735395    -1.01576276     0.77838377
O       5.81840324     1.02020124     4.09714380     0.19282510     0.37142170    -1.78181783
O       1.92426221     4.66380124     4.07037881    -0.76393880     0.40798949    -0.22353102
O       2.05535122     0.87425421     4.14983980    -0.80256269     0.20148355    -0.42078536
O       3.82391424     2.81911724     3.23233683    -0.87422862    -0.28206015    -0.34975963
O       3.83550724    -1.07325878     3.27471879    -0.19355452     0.67353543    -1.01290832
O       0.03970322    -0.76272275     3.35950580    -0.13105021    -0.45478050    -1.20724754
O       5.67862700     6.68071001     1.52129802     1.19086626     0.03691206     1.24689885
O       5.74605699     2.89947100     1.70539302     0.84768300    -0.17047243    -0.82934306
O       1.90255001     6.66959099     1.57479001    -0.32820453    -0.06463550     0.69291822
O       1.76058102     2.75366600     1.81658200     0.07510015     0.21168414    -1.67843451
