# total energy = -39040.43959018 eV

CRYSTAL
PRIMVEC
        7.60629642    -0.00000847    -0.00005503
       -0.00000847     7.60629642    -0.00005503
       -3.80314186    -3.80314186     9.70738094
PRIMCOORD
46 1
Ti      1.88259702     4.81991682     6.13389320     0.01032015    -0.02222514    -0.00244846
Ti      3.78418092     6.72153319     1.28022778     0.01026282    -0.02243443    -0.00266315
Ti      1.92813712     0.88437522     6.06191500    -0.00491929     0.05453183     0.00341725
Ti      3.82969034     2.78597530     1.20824133    -0.00488818     0.05426804     0.00350750
Ti     -1.88451862     4.73926427     6.08230880     0.01127763    -0.03077946     0.03594224
Ti      0.01705410     6.64084580     1.22864257     0.01122673    -0.03070952     0.03568255
Ti     -1.93173400     0.96148640     6.02106239     0.01651214     0.02908999     0.02419563
Ti     -0.03015136     2.86306780     1.16739277     0.01661036     0.02901928     0.02426377
Ti      3.80655732     0.96494561     8.49210636     0.00055793     0.00700446    -0.06695849
Ti      5.70812538     2.86650394     3.63839274     0.00072428     0.00720835    -0.06680654
Ti      3.81128286    -2.86681843     8.50285293    -0.00633906     0.00310307     0.00113283
Ti      5.71284399    -0.96524313     3.64913943    -0.00634420     0.00286318     0.00143570
Ti     -0.00420992     0.96498640     8.35195904     0.01332680    -0.02236269    -0.02227450
Ti      1.89737420     2.86654168     3.49831746     0.01314657    -0.02258149    -0.02218040
Ti     -0.00219166    -2.86609399     8.58197111     0.01564748    -0.01093079    -0.05346868
Ti      1.89936287    -0.96450412     3.72822987     0.01574107    -0.01075081    -0.05286936
O       1.89438194    -0.95351588     5.69311835    -0.00228468     0.00486504    -0.01027927
O       3.79595297     0.94807912     0.83948354    -0.00219521     0.00517178    -0.01056210
O      -1.90109530     2.85643664     5.61099099     0.01024302     0.00406157     0.01137379
O       0.00047526     4.75800397     0.75732258     0.01029547     0.00436651     0.01137071
O      -1.89836490    -0.95308984     5.67482679     0.00560629    -0.00031522     0.00215536
O       0.00321564     0.94849415     0.82117803     0.00553919    -0.00049597     0.00201626
O       3.83267091     2.85719756     8.93652240     0.02119027    -0.02633402    -0.00500440
O       5.73423679     4.75875891     4.08282152     0.02125943    -0.02637413    -0.00528336
O       3.77766313    -0.95469609     8.87619333     0.00503242     0.02334665     0.02186313
O       5.67922760     0.94686160     4.02248204     0.00509259     0.02335000     0.02174768
O      -0.02630620     2.74584250     9.00502300    -0.01479079    -0.02095270     0.08405274
O       1.87527741     4.64741107     4.15138489    -0.01489235    -0.02132499     0.08370075
O       0.02342395    -0.85604803     8.92691344    -0.00670878    -0.02129260     0.03475079
O       1.92501425     1.04545026     4.07316446    -0.00679286    -0.02123861     0.03495725
O       1.92007289     0.99778334     8.04685160    -0.03936412     0.03654773    -0.00734153
O       3.82162788     2.89931592     3.19317890    -0.03908798     0.03671742    -0.00725797
O       1.88098020    -2.89034375     8.13719462    -0.01023634    -0.02648494     0.03397303
O       3.78256071    -0.98879912     3.28349480    -0.01031064    -0.02655256     0.03394012
O      -1.91872518     0.92726085     8.00933490     0.01264469    -0.00221346    -0.00371884
O      -0.01713638     2.82876721     3.15566909     0.01245340    -0.00196895    -0.00383172
O      -1.88307649    -2.83192548     8.09591787     0.01711713    -0.00335118     0.02098561
O       0.01848646    -0.93039012     3.24222661     0.01719452    -0.00335272     0.02089511
O       3.78158811     4.63490878     6.50682353    -0.00788378     0.02257558    -0.03151377
O       5.68317626     6.53649089     1.65310157    -0.00811055     0.02257044    -0.03147469
O       3.78367457     1.08232039     6.42597282    -0.00684222    -0.00231502    -0.02615970
O       5.68524412     2.98392195     1.57229377    -0.00681368    -0.00233148    -0.02607742
O       0.01905513     4.62552607     6.50399540    -0.01523765     0.00620665    -0.01358211
O       1.92061841     6.52711408     1.65028840    -0.01511835     0.00610097    -0.01351115
O       0.02539558     1.07686445     6.40946600    -0.02480447    -0.00176661    -0.03099877
O       1.92697898     2.97842798     1.55579477    -0.02505798    -0.00152929    -0.03109262
