# total energy = -19072.79579035 eV

CRYSTAL
PRIMVEC
        5.17600016     0.00000000     0.00000000
        0.00000000     5.50899976     0.00000000
        0.00000000     0.00000000     9.26300011
PRIMCOORD
22 1
Ti      1.77950900     3.37257399     3.22410400     0.00623133     0.81247404     0.41441802
Ti      3.79083902     2.38310402     5.98272601    -2.43795023    -0.32889821    -0.59797840
Ti      4.25628602     2.19044101     1.19616300     1.11677553     0.61138028    -0.97416975
Ti      0.90060999     3.18174399     8.22965701    -0.78445158     1.06804513    -0.38918469
Ti      1.75592098     0.51325198     1.34554302    -0.66477542    -0.75426245    -1.80837194
Ti      3.15438098     5.08425300     7.92647702     2.03936456    -0.93785393     0.53421784
Ti      0.68534698     0.18164702     6.06563898     0.60126787     1.75033518    -2.20181283
Ti      4.34103302     5.03987497     3.45075802     0.86138596    -0.23422296     0.58551188
O       3.40051100     3.44975502     4.37503001    -0.21676516    -0.17690610     1.33335531
O       1.02437698     2.08003400     0.36590199    -0.92509200    -0.15611050    -0.19421555
O       4.37585601     3.73625402     8.88577198     0.22440262    -0.34740399     1.04160878
O       3.25495101     0.75407001     0.18501799     2.32447275     1.65141837    -0.99543330
O       1.60381998     4.97277001     8.78990898    -3.32321789    -1.43348259     0.44343987
O       4.42052301     0.93155998     4.71855199    -0.03215423    -0.22613015     0.50020265
O       0.94057398     4.80455001     4.31983402    -0.02023587    -1.09449228     1.33622749
O       5.13535702     3.57265702     2.32651503     0.97228899    -1.24186720     0.46575757
O       0.27573400     2.16454599     6.59787202     0.70815432    -0.61992406     1.05150599
O       2.67549800     1.81625798     2.26484598     0.00320025     1.95935746     1.72039981
O       2.63205800     3.07549801     7.51544299     0.38015626     0.78339177    -2.54252552
O       5.08936802     0.61782899     1.93211102     0.32981044     0.12971863     1.08294648
O       2.52142000     0.72866300     6.42083402    -0.30506947    -0.98163881     0.50942777
O       2.72331398     4.77385201     2.45022799    -0.85779901    -0.23292815    -1.31532776
