# total energy = -4946.03017990 eV

CRYSTAL
PRIMVEC
        5.61724980     0.00000000     0.00000000
       -0.00000734     2.40739293     0.00000000
       -2.80865712    -1.20378355     6.09596935
PRIMCOORD
6 1
Ti     -0.00024002     1.80561945     1.52399228    -0.02506621    -0.01875260    44.59173570
Ti      2.80882508    -0.60201002     4.57197696     0.02506621     0.01875260   -44.59173570
O       0.00005968     0.60183348     0.99298359     0.02251799     0.01873461   -38.75043526
O       2.80852521     0.60177589     5.10298571    -0.02251799    -0.01873461    38.75043526
O      -0.00002348    -0.60187705     4.04096826    -0.00146604    -0.00002314    -1.36752451
O       2.80860832     1.80548637     2.05500103     0.00146604     0.00002314     1.36752451
