# total energy = -19960.23078736 eV

CRYSTAL
PRIMVEC
        5.93400000     0.00000000     0.00000000
        0.00000000     9.29699974     0.00000000
        0.00000000     0.00000000     4.64899994
PRIMCOORD
24 1
Ti      4.39649699     6.80566902     2.26707800     0.88765287     0.53142125     0.61036186
Ti      4.49202100     2.35637798     2.32918901    -0.36174406    -1.98129232     0.47057247
Ti      1.49492801     7.01668200     2.30123999    -0.65246112    -0.07097687     0.13207350
Ti      1.49230302     2.47165999     2.32226499    -0.05715924    -2.12373457     0.19541420
Ti      2.92834202     4.65167599     4.64444802    -0.23269983    -1.12578133     0.16857830
Ti      2.97212101     9.20011501     4.55030998    -0.47203209     2.35868721     0.56701510
Ti      5.92381302     4.67325801     0.05287999     0.70201992    -0.73800433    -0.64004115
Ti      0.00886700     9.19471798     0.11442902     0.13149192     2.26212733     0.59724897
O       4.50646600     5.58284698     0.85322799    -0.95474429     1.12109755     0.83332390
O       4.51992298     1.01730400     0.87126198    -0.28252938    -0.61740412    -0.04720007
O       1.49170198     5.60492197     0.88464402     0.10124519    -0.21006975    -0.17772397
O       1.51062399     0.86845501     0.85662599    -0.04785185     0.27193463     0.25703276
O       4.49115299     8.49110100     3.78278002    -0.22903704    -1.63205256    -1.16091959
O       4.46230499     3.77274402     3.89326302    -0.09127497    -0.28167680    -1.01737973
O       1.45915298     8.44324702     3.75259501     0.38601760    -1.10764502    -0.90075470
O       1.51167901     3.65223501     3.82888099    -0.33330662     1.10636127     0.53495935
O       2.84667499     6.03832502     3.30430700     1.56017452     0.63405999    -0.94289150
O       2.91873798     1.48599100     3.15665999     0.34997561    -0.68854425     0.53980254
O       0.13565099     6.02901701     3.06232499    -1.96979871    -0.95214593     1.86685787
O       0.06429202     1.44433602     3.11181999    -0.72426126     0.21313168     0.34755645
O       2.97478102     7.81128498     1.39940802     1.07853601     0.21687777    -0.05824554
O       2.94082203     3.29984201     1.47872698     0.45930204     1.07913328    -0.76549766
O       5.91051400     7.77469401     1.45427100    -0.64564410     1.26901549    -0.79089991
O       5.79553601     3.40537298     1.51711900     1.39812837     0.46548040    -0.61924323
