# total energy = -19943.42254500 eV

CRYSTAL
PRIMVEC
        5.85590787     0.00000000     0.00000000
        0.62172343     6.20136901     0.00000000
        0.00000000     0.00000000    10.49394331
PRIMCOORD
24 1
Ti      2.49091775     3.67492557     3.89317821     0.04313310    -1.26849510     0.73545071
Ti      3.98671374     2.52644349     6.60076545    -0.04313310     1.26849510    -0.73545071
Ti      5.30363335     2.52644560     1.35375170    -0.04533011     0.19210879    -0.36350424
Ti      1.17399816     3.67492376     9.14019215     0.04533011    -0.19210879     0.36350424
Ti      2.18005615     0.57424112     1.35379380     0.04313310    -1.26849510    -0.73545071
Ti      4.29757535     5.62712818     9.14015005    -0.04313310     1.26849510     0.73545071
Ti      0.86313648     0.57423883     6.60072342     0.04533011    -0.19210879    -0.36350424
Ti      5.61449496     5.62713041     3.89322031    -0.04533011     0.19210879     0.36350424
O       2.07235128     2.18360747     5.35497908     1.42404330     1.48344840    -0.27079768
O       4.40528021     4.01776166     5.13896459    -1.42404330    -1.48344840     0.27079768
O       1.29347829     2.18363254     0.10804103    -0.98133465     0.69034505     0.39030569
O       5.18415326     4.01773663    10.38590240     0.98133465    -0.69034505    -0.39030569
O       4.09441861     0.91707697     0.10800701    -1.42404330    -1.48344840    -0.27079768
O       2.38321288     5.28429216    10.38593642     1.42404330     1.48344840     0.27079768
O       4.87329165     0.91705194     5.35501317     0.98133465    -0.69034505     0.39030569
O       1.60433978     5.28431718     5.13893056    -0.98133465     0.69034505    -0.39030569
O       0.59092609     3.77202431     2.83467596     0.35712328     0.38021539     0.71861357
O       5.88670534     2.42934481     7.65926771    -0.35712328    -0.38021539    -0.71861357
O       3.38427455     2.42928706     2.41232924     0.56446123     0.78357715     0.07643995
O       3.09335694     3.77208200     8.08161431    -0.56446123    -0.78357715    -0.07643995
O       0.28006449     0.67133962     2.41229570     0.35712328     0.38021539    -0.71861357
O       6.19756694     5.53002945     8.08164779    -0.35712328    -0.38021539     0.71861357
O       2.78249533     0.67139737     7.65930120    -0.56446123    -0.78357715     0.07643995
O       3.69513616     5.52997175     2.83464247     0.56446123     0.78357715    -0.07643995
