# total energy = -19518.17315089 eV

CRYSTAL
PRIMVEC
        5.93400000     0.00000000     0.00000000
        0.00000000     9.29699974     0.00000000
        0.00000000     0.00000000     4.64899994
PRIMCOORD
23 1
Ti      4.44972201     7.03883701     2.24610300     0.78765286     0.09933409     0.68629659
Ti      4.45065098     2.27093998     2.33173002     0.32398663    -0.65853330    -0.09906207
Ti      1.39281998     7.10020802     2.19242998    -0.74903642    -0.45656587     0.28009788
Ti      1.48816401     2.30207402     2.35922802    -0.66291266    -0.61110568     0.25304164
Ti      3.03526498     4.54830101     0.17511100    -0.64405027    -0.81470345     0.11684563
Ti      2.96984401     9.18255802     4.55863600     0.24480434     0.82334827    -0.01295579
Ti      0.02940199     4.62397499     4.62753599     0.50009543    -0.41837777    -0.76834130
Ti      0.01961200     0.08744098     0.06214599    -0.24898444     1.01063572    -0.00393173
O       4.51460602     5.54750799     0.96334999    -0.70805842     0.06984224    -0.60655586
O       4.35188899     0.87766799     0.91895402     0.26459927     0.31521505    -0.11214616
O       1.60852501     5.62430002     0.85590002    -0.34438860     0.55697546     0.25150001
O       1.53104901     0.89685400     0.93123300    -0.49684196     0.19063863    -0.09410652
O       4.49760699     8.33924501     3.68538601    -0.78747237    -0.05063018     0.86484255
O       4.47956400     3.66806201     3.70415899    -0.27827343     1.23431972     0.76611112
O       1.35464799     8.36464499     3.88799501     0.83234868    -1.04250430    -1.43026151
O       1.51197101     3.84895200     3.64933798     0.41745681     0.00971003     0.70134424
O       2.94663599     1.32764402     3.19887399     0.19031056     0.17286664     0.31315302
O       0.01025900     6.07013699     3.11153101    -0.12700483    -0.13492409     0.50829031
O       5.90116302     1.43653197     3.31774101     0.10215022     0.15540730    -0.55236752
O       2.88867902     8.02678802     1.50121500     0.50781929    -1.37182520     0.28344572
O       2.89830999     3.21481598     1.49717098     1.01169527     0.76927744    -1.03057335
O       5.82848698     8.03085702     1.47967902     0.51109333    -0.51289208    -0.02496079
O       0.06853602     3.13799098     1.36219300    -0.64698904     0.66449157    -0.28970636
