# total energy = -19517.11655442 eV

CRYSTAL
PRIMVEC
        7.60600008     0.00000000     0.00000000
        0.00000000     7.60600008     0.00000000
       -1.89786986    -1.89786986     4.85670466
PRIMCOORD
23 1
Ti      3.82225802     6.77435300     1.22123901    -0.83071011     0.23350382     0.59619894
Ti      3.70743598     2.99138100     1.13016502     0.58005343    -0.23680666     1.57882145
Ti     -0.17324602     6.54677900     1.18033001     1.58612210    -0.58000381     1.00957951
Ti      0.05533400     2.65960898     1.26243202    -1.65776720    -0.09590835    -1.08479408
Ti      5.71945123     2.75004722     3.53089879    -1.46340716     0.09231729     1.84818600
Ti      5.74207620    -1.10364678     3.72155781    -0.09849077     0.79032629    -0.45475504
Ti      1.97424925     2.93327924     3.63733682     1.27566359     0.31030064     0.75149697
Ti      1.83409422    -0.91326479     3.62878679     0.51596172    -0.42696552    -1.40739488
O       4.30105299     4.73636298     0.73973201    -1.78926966     0.31929411     0.20998567
O       3.76956599     1.10759799     0.84710901    -0.23437542    -0.72533007    -0.19943309
O      -0.29673900     4.84712200     0.81743301     0.68120452    -1.48391454    -0.64468276
O       0.23944101     0.79374503     0.84906098    -0.37042874     1.90734891    -1.06303637
O       5.82027521     4.66872524     3.94332981    -0.53871342    -0.34536433     0.03858867
O       5.51965723     0.91381624     4.31780484     0.92257129     0.10612618    -2.90521524
O       1.99823225     4.81430121     4.12491984    -0.49678077    -0.65661114    -0.03536888
O       1.83301824     0.93288821     3.99420279    -0.65379655     1.63316353     0.03307700
O       3.79190325     2.92223923     3.20507282     0.12321862    -0.36614400    -1.48904338
O       3.79125522    -0.94356680     3.14870079     0.41788541    -0.47784741     0.84408551
O       0.01199322     6.29020720     3.20374380    -0.63361904     1.42111712     0.07974357
O       5.70113402    -0.60233500     1.65750602    -0.32061514    -0.28452841     0.60654069
O       5.87130700     2.80950500     1.66213701    -1.38846616    -0.63469711     0.90346105
O       1.86088598     6.72568902     1.59497500     1.22114847    -0.76091852     0.50360293
O       1.69663302     3.17021401     1.68987400     3.15261176     0.26154171     0.28035576
