# total energy = -19516.73191521 eV

CRYSTAL
PRIMVEC
        5.17600016     0.00000000     0.00000000
        0.00000000     5.50899976     0.00000000
        0.00000000     0.00000000     9.26300011
PRIMCOORD
23 1
Ti      1.89325401     3.21267001     3.34748802     0.69800309    -1.98443472     3.00273079
Ti      3.28634699     2.24533299     6.01384301    -0.41462036     0.61909925    -3.12554395
Ti      4.46719798     2.10413702     1.39015398    -0.73257313    -0.72697917     1.07445078
Ti      0.86146902     3.33740302     7.72354601     1.35456923     1.02873552    -0.99263696
Ti      2.06593799     0.21897201     1.34545401    -0.94728809     1.23443619    -0.27350763
Ti      3.23980500     5.18464401     7.99941702     0.41679937     1.48396648    -1.89052231
Ti      0.72319099     0.56572599     5.86801298    -0.66444298    -0.03488628    -2.98483025
Ti      4.51290900     4.90512703     3.37186500     0.45852762     0.27541359     3.32833747
O       1.53055698     1.90684699     4.68138501    -0.26302935    -0.35872430     1.33464858
O       3.41088298     3.41411901     4.42826397     1.86769965     0.62790810     0.13049562
O       0.04545098     2.77725699     9.19980602     0.01185588     0.28557665     1.39483838
O       3.37464201     0.95999998     0.20332398     0.58303308    -0.74471362    -1.45189684
O       1.94636399     4.53878301     9.05758800    -0.87004261    -0.91553238     0.73090654
O       4.13159498     0.63252398     4.98227202     0.11065544     0.39433667    -0.37113322
O       1.00893501     4.82108098     4.45402998    -0.45812782    -0.50839779    -0.28539718
O       0.20730498     3.32639999     2.61426500    -1.38964192     0.49991520    -1.25883083
O       4.89149902     2.09543899     6.96124798    -0.70149516    -0.62240131    -1.48356847
O       2.74217899     1.75800202     2.24418600    -0.51647851     1.60785821     0.89836512
O       2.48184098     3.91991001     6.64922798    -0.03029198    -0.74104234     1.65421959
O       0.25738599     0.68933301     2.10328700     0.44122563    -1.00532099    -0.65375979
O       5.07948902     4.83006403     7.21139700    -0.72066043    -0.07911339     0.76794869
O       2.13865202     1.12655402     7.09907299     0.72899363    -0.24958890     0.82451092
O       2.89502999     4.48222000     2.29544999     1.03732995    -0.08611116    -0.36982504
