# total energy = -4981.15367922 eV

CRYSTAL
PRIMVEC
        3.76511682     0.00000000     0.00000000
       -0.00000701     3.08054996     0.00000000
       -1.88258353    -1.54031018     4.41242067
PRIMCOORD
6 1
Ti     -0.00016342     2.31052728     1.10310529    -0.00334141    -0.01118662    10.07189002
Ti      1.88268969    -0.77028769     3.30931553     0.00334141     0.01118662   -10.07189002
O       0.00003884     0.77013100     0.71874732     0.00359235     0.00758913    -1.53563770
O       1.88248734     0.77010849     3.69367354    -0.00359235    -0.00758913     1.53563770
O      -0.00001821    -0.77012400     2.92495756     0.00121716    -0.00017972     2.98088926
O       1.88254430     2.31036349     1.48746325    -0.00121716     0.00017972    -2.98088926
