# total energy = -19960.18339939 eV

CRYSTAL
PRIMVEC
        7.60600008     0.00000000     0.00000000
        0.00000000     7.60600008     0.00000000
       -1.89786986    -1.89786986     4.85670466
PRIMCOORD
24 1
Ti      3.73211601     6.57796199     1.30426200    -1.88656590     1.57936241     0.16188777
Ti      3.73220697     2.98886301     1.23398700     0.51367112    -1.22914898     0.81815155
Ti     -0.05833698     6.63990002     1.18378200     1.78058087    -1.76729238    -0.37123195
Ti      0.05972300     2.76908602     1.17469999    -0.01820239     1.50290600    -0.70170419
Ti      5.78815023     2.88163122     3.57042881    -1.12956600    -0.91621809    -0.03771501
Ti      5.80673224    -1.00864676     3.59694583    -1.14258350     0.58993881     0.11759485
Ti      1.81710821     2.92256425     3.70820381     1.80299087     0.23424275    -0.96539766
Ti      1.81972520    -0.94955677     3.75281181     1.40463249    -0.23240236    -0.28392189
O       3.64046097     4.83808101     0.84071998     0.60956842    -0.85583983    -0.81506340
O       3.64669997     1.11318599     0.81026102     0.64302928    -1.61453820     0.31650703
O       0.16383201     4.64886903     0.62756601    -0.66548299     0.25003499     1.08062272
O       0.22877301     0.82951100     0.71078898    -0.89587912     1.07172593     0.14265617
O      -1.58469779     4.63043720     4.10186480    -0.70111181     2.21357769    -0.24482490
O       5.81629024     0.94302423     3.85566784    -0.54832035    -1.86872475     0.52781528
O       1.59222322     4.77852322     4.05866880     0.66344333     0.49520751     1.21168346
O       1.89547423     1.07019722     4.06815383     0.25944317    -0.61244806    -0.07288977
O       3.78935621     3.10329923     3.23896583     0.66389765    -0.44784494    -0.39393249
O       3.72642624    -1.26767479     3.26375779     1.00052177     1.05141678     0.32149472
O       0.08038721     2.86299222     3.13707080    -0.54515506    -0.64846305    -0.44945163
O       0.02211622    -0.95446679     3.18697983    -1.72436420     0.37074061    -0.47317289
O       5.57607203     6.52952200     1.55972899     2.41401042     0.39970719     0.51486900
O       5.86601898     3.02870101     1.59020600    -1.26340637    -0.65187337    -0.41340989
O       1.84623698     6.41171598     1.73362600    -0.47118465     1.22449553    -0.34955806
O       1.94735201     2.92098100     1.59053801    -0.76396682    -0.13856220     0.35899093
