# total energy = -19960.25571204 eV

CRYSTAL
PRIMVEC
        7.60600008     0.00000000     0.00000000
        0.00000000     7.60600008     0.00000000
       -1.89786986    -1.89786986     4.85670466
PRIMCOORD
24 1
Ti      3.78106998     6.71477997     1.30950599     0.11111464    -0.65372816    -0.13616876
Ti      3.70856900     2.92908800     1.15691302     1.23425699     1.34398528     1.85771863
Ti      0.01178203     6.45894098     1.20378400     0.06682737    -0.76812095    -0.73988020
Ti      0.10299102     2.70945102     1.13919400    -2.09015158     0.89536233    -0.01076393
Ti      5.71685323     2.83103521     3.48868982     0.53038433    -1.68898786    -0.32248896
Ti      5.67110422    -1.08141377     3.63994783     0.42343179     0.93410784     0.17998654
Ti      1.94980623     2.98497425     3.73107083    -0.02970319     1.09531324    -1.11073318
Ti      1.82933723    -0.84450577     3.74334780     0.06321728    -0.89885209    -0.94088244
O       3.77113198     4.79112298     0.85594500    -0.11412283     1.31039201     0.03334876
O       3.78908702     1.12211702     0.93173498    -0.43980973    -2.16539443    -0.84421304
O       0.09219099     4.54200798     0.71565900    -0.03393009     2.66826588    -0.60944038
O       0.27731100     0.86993099     0.68915103    -0.53434177    -1.04029238     0.37358451
O       5.75234324     4.60370221     3.99776981    -0.19048513     2.01078494     1.40108334
O       5.78443022     0.87683522     3.78644283    -0.25133185    -0.32677268     0.89142211
O       1.72961224     4.84284921     4.20140680     0.23465927     1.10484715     0.65604190
O       1.83757525     1.16640223     4.03828183    -0.38576075    -2.80946861     0.17572957
O       3.82362520     3.15548622     3.30274079    -1.50044957    -0.81367681    -0.95467050
O       3.79048923    -0.96659675     3.39196479    -1.12040490     0.21314299    -0.63739831
O      -0.08419480     3.08554825     3.03405581     1.04570532    -0.87817038     1.10011297
O      -0.06287176    -1.03795276     3.13463483     1.49030836     0.34626833     0.58027197
O       5.68816902     6.48216900     1.61878099    -0.49611048     0.42190507    -0.53683805
O       5.73955901     2.85873499     1.44580401    -1.36776928    -0.43737618     0.54813497
O       1.89426500     6.49943600     1.78803002     0.50700759     0.55903465    -0.17825336
O       1.81463901     2.95248901     1.77924298     2.84745770    -0.42256919    -0.77570391
