# total energy = -19518.87116986 eV

CRYSTAL
PRIMVEC
        7.60600008     0.00000000     0.00000000
        0.00000000     7.60600008     0.00000000
       -1.89786986    -1.89786986     4.85670466
PRIMCOORD
23 1
Ti      3.79987499     6.69019599     1.15919102     0.64448376    -1.17045915    -0.08532440
Ti      3.85160000     2.78454699     1.17253799    -0.37144484     1.70062494     0.72854498
Ti      0.09196503     6.69588501     1.24601202    -0.98297681    -0.50617584    -1.01671407
Ti     -0.01983700     2.81247199     1.12093500    -0.21259714     0.40821986     1.15169806
Ti      5.54590421     2.82568824     3.73541982     0.06430897     0.81272807     0.87627831
Ti      5.71350724    -0.94575876     3.52148780    -0.18066686    -0.65757916     0.80697342
Ti      1.98828223     2.88923825     3.63791082    -0.28752246    -0.31504613     1.00090821
Ti      1.93740724    -0.91767379     3.60823979    -0.18466904    -0.28943305     0.06692378
O       3.89228500     4.67444400     0.74132801    -0.34141383     0.38176782     1.17621714
O       3.69703902     0.97514498     0.73033398     0.07042383    -0.69728498     0.36544285
O      -0.19158100     4.74722900     0.88574900     0.65986076    -0.19005293     0.23277234
O       0.06529698     0.96397198     0.75354301     0.04643671    -1.12395945     0.22410103
O       5.69522322     4.67490624     4.08028284     0.71412777     1.43425264    -0.32647494
O       5.65262423     0.94871622     4.14153383     0.32430185    -0.13293148    -1.57940689
O       1.87297223     4.72291823     4.10337481    -0.46698964     0.94105624    -0.79194121
O       1.84745224     0.96266121     4.10096679    -0.07336800    -0.32422369    -0.76638186
O       3.76492823     2.91676621     3.42968084     0.09334008    -0.26231227    -1.39025770
O       3.80105722    -0.87571178     3.26743282    -0.24535789    -0.13291477    -0.41911542
O      -0.00772879    -0.81401479     3.23266582     0.44104694    -0.36984510    -0.66096171
O       5.66278899     6.71010797     1.53612202     0.46943168     0.17143608     0.96317957
O       5.70689099     2.67900301     1.85200401     0.65985150    -0.11007719    -1.21595767
O       1.95211302     6.45746002     1.52959700    -0.74499850     0.49398880     1.05931649
O       1.81894900     2.85632602     1.74312097    -0.09560779    -0.06177926    -0.39981980
