# total energy = -19912.08790823 eV

CRYSTAL
PRIMVEC
        7.41038358     0.00000000     0.00000000
        0.00003131     5.82943980     0.00000000
        0.00000000     0.00000000    11.79847223
PRIMCOORD
24 1
Ti      2.68592620     3.45452067     4.37714905     0.50496665    -0.82836809     1.21130551
Ti      4.72448875     2.37491932     7.42132325    -0.50496665     0.82836809    -1.21130551
Ti      6.39099001     2.37492135     1.52203996     0.50469514     0.82814569    -1.21146826
Ti      1.01942494     3.45451891    10.27643247    -0.50469514    -0.82814569     1.21146826
Ti      2.68591068     0.53980090     1.52208727     0.50496665    -0.82836809    -1.21130551
Ti      4.72450427     5.28963929    10.27638517    -0.50496665     0.82836809     1.21130551
Ti      1.01940942     0.53979868     7.42127595    -0.50469514    -0.82814569    -1.21146826
Ti      6.39100553     5.28964151     4.37719635     0.50469514     0.82814569     1.21146826
O       2.34544426     2.05264489     6.02067008     0.80056777     1.46210001    -1.24962293
O       5.06497077     3.77679510     5.77780223    -0.80056777    -1.46210001     1.24962293
O       1.35981298     2.05266840     0.12147191    -0.80022736     1.46217971    -1.25035210
O       6.05060211     3.77677166    11.67700006     0.80022736    -1.46217971     1.25035210
O       5.06495524     0.86207514     0.12143363    -0.80056777    -1.46210001    -1.24962293
O       2.34545978     4.96736485    11.67703834     0.80056777     1.46210001     1.24962293
O       6.05058659     0.86205169     6.02070835     0.80022736    -1.46217971    -1.25035210
O       1.35982837     4.96738837     5.77776395    -0.80022736     1.46217971     1.25035210
O       0.26925543     3.54579573     3.18706170    -1.41097952     0.30207285     0.02148337
O       7.14115959     2.28364426     8.61141060     1.41097952    -0.30207285    -0.02148337
O       3.97445521     2.28358989     2.71221197    -1.41074966    -0.30186434    -0.02158288
O       3.43595981     3.54585017     9.08626013     1.41074966     0.30186434     0.02158288
O       0.26923991     0.63107583     2.71217429    -1.41097952     0.30207285    -0.02148337
O       7.14117511     5.19836423     9.08629782     1.41097952    -0.30207285     0.02148337
O       3.43594429     0.63113020     8.61144822     1.41074966     0.30186434    -0.02158288
O       3.97447073     5.19830979     3.18702401    -1.41074966    -0.30186434     0.02158288
