# total energy = -19957.71123548 eV

CRYSTAL
PRIMVEC
        5.93400000     0.00000000     0.00000000
        0.00000000     9.29699974     0.00000000
        0.00000000     0.00000000     4.64899994
PRIMCOORD
24 1
Ti      4.45151502     6.62723998     2.22598601    -0.38684010     2.72267842     0.48703397
Ti      4.43268102     2.51139098     2.28333702     0.69804165    -4.65695527     0.64132798
Ti      1.43966698     6.80541698     1.99048202     0.28751089     2.40198923     1.64907584
Ti      1.56100198     2.52932401     2.31579098    -0.68382988    -3.75098945     0.93475215
Ti      3.04285798     4.70512999     4.46100798    -2.04633508    -1.95052006     0.12838500
Ti      2.99136602     9.16661502     0.31964100    -0.54075410     0.55046208    -1.34357699
Ti      5.86603899     4.63753902     0.01791498     2.64521876    -1.75202439    -0.20599943
Ti      0.02366200     9.28813603     0.25182201     0.56160344     0.99315581    -1.91931662
O       4.41863099     5.77601498     0.54047402    -0.48498146     0.51219839     0.99813347
O       4.37241302     0.98359102     1.08468599     0.53356658     0.41733211    -0.30507899
O       1.45995003     5.77567800     0.54314700     0.48672389    -0.89331187    -0.17760724
O       1.55763202     0.84597498     1.13785899    -0.57647394     1.22446057    -0.43128960
O       4.52098800     8.45281100     4.07716402    -0.65128407    -0.92254944    -1.00743907
O       4.57348598     3.78468098     3.68217199    -1.48743875     0.89156763     1.13407109
O       1.48410099     8.34302800     4.06298800     0.09296290     0.16175459    -0.14319559
O       1.31202498     3.60849697     3.83341398     1.08504579     2.19210331     0.70719067
O       2.84839302     5.77176601     2.91169399     0.72854806     0.08660019     0.23066403
O       2.87259700     1.55404197     3.19221699     0.73125801     1.36280011    -0.04838946
O       5.90749399     5.92126001     3.04109402     0.44676765    -0.24240498    -0.28535965
O       0.02869300     1.54569701     3.19334700    -0.55682093     0.25011804     0.11258916
O       2.97740998     7.94353002     1.78963899     0.27132090    -0.98364890    -0.37873006
O       3.06616401     3.59705600     1.40442298    -0.80635276    -0.36016721    -0.41458334
O       5.89285801     7.82103099     1.50271099    -0.80245008    -0.39424308     1.12678561
O       5.88229801     3.29434402     1.41091498     0.45499287     2.13959417    -1.48944267
