# total energy = -39033.81238119 eV

CRYSTAL
PRIMVEC
        5.93200024     0.00000000     0.00000000
        0.00000000     9.29399984     0.00000000
        0.00000000     0.00000000     9.29399984
PRIMCOORD
46 1
Ti      4.46651597     7.19428600     6.88034001    -0.66565628    -1.00975718     1.31440345
Ti      4.45146898     6.73945397     2.47185901    -0.70091306    -0.01596141    -1.11267822
Ti      4.41433000     2.13609102     7.21451100    -0.26236086     0.82218639    -1.68321136
Ti      4.15492699     2.70738802     2.03413798     0.77030305    -0.67247922     0.65676155
Ti      1.50960998     6.91314598     7.15292201    -0.34757754    -0.10410529    -0.69355919
Ti      1.42357798     7.12888599     2.18947701     1.38962650    -0.24654883     0.25072507
Ti      1.41975600     2.47967400     6.78069302     0.81974487    -0.17834027    -1.23648151
Ti      1.32742801     1.97358502     2.79676299    -0.72896432     1.14535464    -0.49124647
Ti      3.01906803     4.67307100     4.59559501    -1.08553327     0.06876084     1.19255008
Ti      2.99185900     4.66824099     9.01024198     0.56140418     0.13132197     0.91908667
Ti      3.12206301     9.17345898     4.59010802    -2.00712137     0.40073872    -0.08884964
Ti      2.97693202     0.08812198     0.12624301     0.41630881    -1.43864897    -0.45713614
Ti      5.92996000     4.60672202     4.54855401     1.00814869     0.45905984     1.37901478
Ti      0.11180198     4.77108997     9.22565702    -0.76363361     0.77340714     0.45119715
Ti      0.00752199     9.09857002     4.84931798     2.10144335     0.80319904    -1.05451778
Ti      0.04555602     0.05264499     0.08423100    -0.47720309    -0.49373401    -0.81382310
O       4.41024401     5.55527499     5.43647200     0.76939802     0.96992486     0.94904055
O       4.33733799     5.51362699     0.90233802     0.39176608    -1.37553427     0.25750096
O       4.53482900     0.61168302     5.72181099    -0.69464008     0.93807685    -0.38115796
O       4.34761599     1.17831898     0.70168501     0.95493429     0.15542376     0.39410629
O       1.42301700     5.59379200     5.41248699    -0.08040922    -0.39993859     1.51216223
O       1.56141098     5.78438598     0.75991001    -0.29109089    -1.98986386    -0.52083396
O       1.58546600     1.03138202     5.23345701    -1.14975714    -0.18097539    -0.18345522
O       1.55831497     0.88629802     0.98780798    -1.40806517     0.64440714     1.39231947
O       4.51221699     8.36054900     8.50232802    -0.40822166     0.54917087    -1.19982836
O       4.53002598     8.16260898     3.79997198     0.56644149     1.21572601     0.71267921
O       4.53387399     3.70853899     8.31562598    -0.40657101    -0.06293523     1.44007799
O       4.45066902     3.80666301     3.64897099    -0.75532277    -0.32535420    -0.94897705
O       1.44990502     8.39374001     8.51004300     0.20668772    -0.64405772    -0.45334556
O       1.51119200     8.32888399     3.75650700    -0.18774639     0.81559973    -0.64318175
O       1.41467002     4.02708100     8.01215601     0.28104148    -0.85017311     1.56927905
O       1.44669900     3.59434498     3.86081398     0.09970279    -0.77126387    -0.66866808
O       2.99806101     6.04253198     7.87895500     1.27072424     1.57644626    -1.51767339
O       2.84809700     6.04890301     3.30263702     0.84509673     0.06581409    -1.23651802
O       2.76139501     1.48076299     7.86492201     1.14158874    -0.56235395     0.45397677
O       3.09934501     1.54670800     3.12031202     1.03296345    -0.78608654     0.01669984
O       5.79389398     6.13491299     8.01074300     0.28707072     0.31389762    -0.99047955
O       0.22736900     5.98318602     3.08041401    -1.68014609    -0.54597010     0.55354766
O       0.21645900     1.35897697     7.76097800    -1.27389133    -0.13842105     1.03597832
O       2.89100602     7.85166501     5.96019200     0.02635022    -0.22200019     1.21902834
O       3.16526298     7.96795399     1.55343400    -1.06787801     0.03475824    -0.45245519
O       3.17412601     3.11886498     6.00055298    -1.10150497    -0.00174604     0.50304578
O       0.14457101     7.87721602     6.15328201    -0.00862014    -0.47128158     0.40900661
O       5.79424302     7.80914599     1.46066902     0.59848516     1.50647906    -0.55477973
O       5.75670001     3.14533602     6.03533300     0.76072286     0.12199118    -0.41057550
O       5.91396699     3.01518900     1.73623601     1.25287410    -0.02421337    -0.78875509
