# total energy = -19957.27255458 eV

CRYSTAL
PRIMVEC
        7.60600008     0.00000000     0.00000000
        0.00000000     7.60600008     0.00000000
       -1.89786986    -1.89786986     4.85670466
PRIMCOORD
24 1
Ti      3.75515199     6.78782601     1.29815599     0.26308874    -1.69539248    -1.15077092
Ti      3.74088400     2.91545703     1.07829199     1.92275702     1.96402992     1.66609655
Ti     -0.04019101     6.42487498     1.19301699    -0.19432482    -0.96091520    -1.02607212
Ti      0.18821501     2.67592500     1.14598599    -2.95475939     1.02698666    -1.09188390
Ti      5.76635220     2.85345920     3.55783783     0.43995422    -0.80977798    -0.48081884
Ti      5.66820120    -1.07454875     3.65752879    -1.47206458     0.07079844    -0.69573820
Ti      1.95792122     2.98358622     3.63576283     0.08429442     2.67148953     1.23069138
Ti      1.69370323    -0.81676577     3.71117683     1.53002266    -4.24939490    -1.81481487
O       3.75148400     4.87894000     0.63334701     0.09060854    -2.41876105     1.70370075
O       3.62313799     1.03827000     0.74435300    -0.17921110     0.60983941     2.13065315
O       0.04772602     4.49664299     0.70793999    -0.38482898     2.52224414     0.02183639
O       0.16327801     0.81940102     0.67381901    -0.08649888    -0.15711117     2.27236547
O       5.57897922     4.63003021     4.01685983     1.01094168     1.53377725     2.28551024
O       5.97385324     0.82125124     3.90123783    -0.31628437     0.33508094     0.63857587
O       1.90751920     4.84850321     4.22047882     0.21842841     0.79723742    -0.18211593
O       1.86622321     0.94590322     4.04642983    -0.14676017     2.52693589    -0.62959012
O       3.89210624     3.34788824     3.49856082    -2.31277731    -3.03799554    -2.63244320
O       3.77044924    -1.01246478     3.57257679    -0.18351127     0.95286944    -2.06098600
O       0.00650422     3.33847920     3.44111080     0.72930114    -2.30453538    -1.75701336
O      -0.05674278     6.25424823     3.33097780     1.11975209     1.17204527    -1.84803842
O       5.65237901     6.38372298     1.57172702     0.79006301     1.02864913     0.82458677
O       5.78000498     2.84445001     1.55175498    -1.20501685    -0.77619833     0.51598383
O       1.93938700     6.53414400     1.59066300    -1.36561213     0.49209133     1.35748307
O       1.86456498     3.13887000     1.61280700     2.60243739    -1.29399248     0.72280293
