# total energy = -19907.24507729 eV

CRYSTAL
PRIMVEC
        6.62057974     0.00000000     0.00000000
        2.06740681     6.73618260     0.00000000
        0.00000000     0.00000000    11.98800593
PRIMCOORD
24 1
Ti      3.62478505     3.99185561     4.44746470    -0.33287519    -1.89272729     0.60806021
Ti      5.06320139     2.74432715     7.54054130     0.33287519     1.89272729    -0.60806021
Ti      6.55208647     2.74432947     1.54649040     0.18073474    -0.65832092    -0.13954256
Ti      2.13590007     3.99185354    10.44151572    -0.18073474     0.65832092     0.13954256
Ti      2.59108180     0.62376442     1.54653847    -0.33287519    -1.89272729    -0.60806021
Ti      6.09690467     6.11241854    10.44146766     0.33287519     1.89272729     0.60806021
Ti      1.10219669     0.62376190     7.54049323    -0.18073474     0.65832092    -0.13954256
Ti      7.58578978     6.11242105     4.44751276     0.18073474    -0.65832092     0.13954256
O       2.82342434     2.37192446     6.11738767     1.80297982     2.01150510    -0.64975272
O       5.86456211     4.36425837     5.87061833    -1.80297982    -2.01150510     0.64975272
O       1.94285070     2.37195163     0.12342326    -0.62800812    -0.12738741     1.13568831
O       6.74513582     4.36423125    11.86458239     0.62800812     0.12738741    -1.13568831
O       4.83085883     0.99616698     0.12338437    -1.80297982    -2.01150510    -0.64975272
O       3.85712762     5.74001584    11.86462129     1.80297982     2.01150510     0.64975272
O       5.71143254     0.99613986     6.11742656     0.62800812     0.12738741     1.13568831
O       2.97655386     5.74004304     5.87057943    -0.62800812    -0.12738741    -1.13568831
O       1.49805500     4.09732817     3.23825948     0.55133214     1.97516846     2.00539050
O       7.18993145     2.63885466     8.74974652    -0.55133214    -1.97516846    -2.00539050
O       4.36071748     2.63879184     2.75578164     0.59421353     1.84199015     1.12582196
O       4.32726897     4.09739098     9.23222415    -0.59421353    -1.84199015    -1.12582196
O       0.46435165     0.72923679     2.75574335     0.55133214     1.97516846    -2.00539050
O       8.22363473     6.00694604     9.23226244    -0.55133214    -1.97516846     2.00539050
O       3.29356569     0.72929959     8.74978474    -0.59421353    -1.84199015     1.12582196
O       5.39442076     6.00688323     3.23822119     0.59421353     1.84199015    -1.12582196
