# total energy = -19518.52923323 eV

CRYSTAL
PRIMVEC
        5.93400000     0.00000000     0.00000000
        0.00000000     9.29699974     0.00000000
        0.00000000     0.00000000     4.64899994
PRIMCOORD
23 1
Ti      4.46571702     7.07155800     2.22703399     0.47614226    -0.39228698     0.72436642
Ti      4.45339502     2.26793802     2.34057098    -0.02564651     0.16953372    -0.23688225
Ti      1.39564202     7.03076499     2.18712402    -0.71083393    -0.07529453     0.90028882
Ti      1.48381301     2.29369598     2.35710301    -0.12220998    -0.15657793     0.00741455
Ti      2.99407001     4.55023002     0.16341300     0.21502427    -0.55532044     0.71126150
Ti      2.96233202     9.18627602     4.61906502    -0.06876058     0.56061408    -0.68325164
Ti      0.01765700     4.61881398     4.63284602    -0.21349574     0.21467202    -0.44670209
Ti      5.93389501     0.08494200     0.01981801     0.13387662     0.02015823    -0.15760817
O       4.47254600     5.58513202     0.96051402    -0.11122468    -0.05692682    -0.47448904
O       4.43178702     0.92512201     0.91739697    -0.00998617    -0.06671732    -0.37366756
O       1.51603800     5.65281500     0.92242500     0.22518218    -0.33020099    -0.44884793
O       1.48132799     0.86791001     0.92788701     0.03952661     0.48972206     0.03076018
O       4.49291398     8.31305699     3.69932797    -0.63981617     0.38356091     0.66308775
O       4.41380902     3.69689699     3.75650103     0.35730480     0.96416739     0.36552179
O       1.44233599     8.39584798     3.74931898     0.23217713    -0.22600648    -0.31550687
O       1.64496500     3.81119398     3.75228502    -1.05579562    -0.17445070    -0.38006447
O       3.03311202     1.38534101     3.17221002    -0.56278538    -0.35325171     0.59345891
O       0.01243498     6.05179200     3.20293400    -0.03101240     0.03768107    -0.06941390
O       5.89793800     1.45944800     3.27873599     0.42122373    -0.10160721     0.01490109
O       2.89595801     7.99367100     1.41850100     0.55190190    -1.18547826     0.69153830
O       2.89539999     3.24981301     1.46676800     0.66817262     0.20684378    -0.29530031
O       5.86544901     7.95332499     1.44260201     0.46928924     0.24585823    -0.57270984
O       0.08428502     3.22058200     1.41509998    -0.23825445     0.38130837    -0.24815500
