# total energy = -39034.09243136 eV

CRYSTAL
PRIMVEC
        5.93200024     0.00000000     0.00000000
        0.00000000     9.29399984     0.00000000
        0.00000000     0.00000000     9.29399984
PRIMCOORD
46 1
Ti      4.47700199     7.05032301     6.86541202    -0.55220914     0.65412000     0.61233416
Ti      4.41609898     6.79860599     2.43476199     1.18751714     0.68472102    -0.28381364
Ti      4.50803702     2.29984799     7.07318500    -0.88578831    -0.29899627    -0.16609873
Ti      4.14574799     2.70269200     2.01429299     1.70443300    -0.90831272     1.19290849
Ti      1.48578901     6.86411602     7.04414598     0.31742491     0.16955815    -0.37197629
Ti      1.49759501     7.11658299     2.17646301    -0.68471588    -0.27955718     0.18308395
Ti      1.49486398     2.43893799     6.90024602     0.59241581    -0.37751753     0.25402920
Ti      1.17988900     1.96259898     2.78978801     0.30734542     1.86306986    -0.66308749
Ti      3.03112602     4.63039698     4.66866602    -0.66049814    -0.45605114    -0.09266851
Ti      2.94846102     4.80056001     9.09986698     0.14297036    -0.44913461     0.01325944
Ti      2.97577201     0.00516498     4.54156500     0.24842625    -1.19879658     1.11657987
Ti      2.92868498     9.26663698     0.01660997     1.03392478    -0.15535562    -1.30669887
Ti      0.02938500     4.76138301     4.68222302     0.90993252    -0.39897262    -0.31266194
Ti      0.04219998     4.59638703     0.05242400    -0.35689522     0.18236302    -0.48782433
Ti      0.00543698     9.09732699     4.83650300    -0.32920289     0.98288991    -0.49897778
Ti      0.03599998     0.05214301     9.27209100    -1.63968154    -0.98941229    -0.50426242
O       4.51431798     5.68501300     5.43793200    -0.88472515    -0.24294697     0.19818225
O       4.38356998     5.44577800     0.84712599     0.62024004    -0.33976498     1.57430170
O       4.63691502     0.90352200     5.73809800    -0.24119785    -0.78573122    -1.67682165
O       4.38097601     0.89420499     0.68768600     0.84571842     1.31360075     1.84587972
O       1.68277699     5.56615900     5.59758800    -0.51025361    -0.43884942    -0.27237557
O       1.44152698     5.57134600     0.81135398     0.37139496     0.18437670     0.39090167
O       1.58014602     0.77553900     5.61611100    -1.08995685     1.40831894    -0.45779666
O       1.47412499     0.76432700     0.88005500     0.32368787     0.73496348     1.33753850
O       4.48911602     8.45760699     8.15085098     0.15913335     0.05323445     0.52364572
O       4.38924202     8.28046797     3.68504601     1.05252132     1.31265432     1.05542795
O       4.38279998     3.73329502     8.37691497     0.12895116    -0.06777122     1.16142404
O       4.54465498     3.88575098     3.70762399    -0.70010625    -1.27283075    -1.43749583
O       1.49206098     8.16830902     8.36605001    -0.04920785     1.78645456     0.77690256
O       1.44021002     8.34345600     3.72307502     0.47929494     1.27797501    -0.87326214
O       1.44868400     3.66463998     8.45013300     0.75514871     0.79273259    -0.18127441
O       1.50183901     3.58432601     3.95978002    -0.12103781    -0.38232215    -0.94406701
O       3.15200598     6.18247201     7.94543501    -1.04067882    -0.42233059    -0.75759023
O       2.93802099     6.02105299     3.10094201    -0.54539058    -0.79278607     0.78033318
O       2.94631298     1.51126202     8.02771699    -0.28297109     0.02901105    -1.46151302
O       3.00370299     1.60964898     3.09443700     0.70192042    -0.62828760    -0.09542447
O       5.87119201     5.98613597     7.84958900     0.43921349    -0.15436601     0.01463087
O       0.15091299     6.01446601     3.20076098    -0.28420111     0.76447461    -0.72965029
O       0.11105499     1.60688397     7.99830299    -0.08594687    -0.85147872    -0.71569254
O       2.89365498     7.87188599     5.84335898     0.82973284    -0.27914914     1.20899435
O       3.13695999     7.88288398     1.47271299    -1.11838298     0.09008789    -0.92837093
O       3.06792903     3.16521202     6.00713701    -0.22050869     0.32407893     0.42680097
O       0.12357998     7.72065099     5.97501299     0.02801964    -0.00059572     0.34926855
O       5.90876100     7.96693098     1.40446198     0.25554512    -0.73364708    -0.02277278
O       5.87941399     3.49596801     6.11519701     0.57680047    -1.96835812     1.06188503
O       0.20644099     3.04182799     1.65711501    -1.72815606     0.26463783    -0.83613514
