# total energy = -19518.43759151 eV

CRYSTAL
PRIMVEC
        7.60600008     0.00000000     0.00000000
        0.00000000     7.60600008     0.00000000
       -1.89786986    -1.89786986     4.85670466
PRIMCOORD
23 1
Ti      3.84494099     6.78338299     1.09104601    -0.45441771     0.08768468     1.67413639
Ti      3.60247197     2.87979302     1.24537400     1.52460586    -0.13632097     0.76710717
Ti     -0.00259202     6.62141998     1.18668898     0.61919103     0.96677860    -0.11702046
Ti      0.14324701     2.75528301     1.12351601    -3.73929633    -0.53670101     0.32355237
Ti      5.58776123     2.82438223     3.75547379     0.52385989     0.27341455    -2.24159964
Ti      5.69267623    -0.99967975     3.57315079    -1.12852290    -0.95460211     0.92452430
Ti      1.94585021     2.87619525     3.78406179     0.87669662     0.04795289    -0.01287995
Ti      1.81100822    -0.84585676     3.57240682     1.63262437    -0.36916041    -0.38879465
O       3.92696002     4.74635898     0.78507700    -0.51930904     0.03515419     1.01545063
O       3.94004102     1.06899202     0.82796702    -0.34418394    -0.50078526    -0.55859679
O       0.14688600     4.74843902     0.77574199     0.00083098    -0.73380083     0.42668887
O      -0.16051798     0.85078298     0.71582902     0.46566372     0.24862474     0.31877963
O       5.83555922     4.68780621     4.06886679    -0.27725707    -0.45505560    -0.61509501
O       5.85349521     0.80920224     4.14667579     0.13539640     1.72838026    -1.99372129
O       1.98864922     4.78048022     4.04251583    -0.67635156    -0.04909626    -0.04438703
O       1.61761421     0.97703525     4.09503280    -0.13615153     0.18464281    -0.40308228
O       3.79598421     2.82374622     3.20330082     0.12013253    -0.11660214     0.46687368
O       3.74241020    -1.17434677     3.09332583     0.36074956     0.90180166     0.39604722
O       0.04419720    -1.16511278     3.20899583    -0.41396396     0.15489025    -0.19281815
O       5.70661201     6.81917998     1.71778201     0.22930341    -0.52437823    -1.35119235
O       5.97617601     2.81067702     1.70758498    -0.19346684     0.27547298     1.47937500
O       1.88768400     6.94438099     1.51492599     0.07747868    -0.54201832     0.80063899
O       1.77628102     2.69181899     1.83521501     1.31638731     0.01372404    -0.67398666
