# total energy = -19961.42172050 eV

CRYSTAL
PRIMVEC
        7.60600008     0.00000000     0.00000000
        0.00000000     7.60600008     0.00000000
       -1.89786986    -1.89786986     4.85670466
PRIMCOORD
24 1
Ti      3.78113502     6.69418101     1.20217101     0.38825343    -1.40541899    -0.28328091
Ti      3.80953501     2.82913901     1.21318398     0.47122759     1.85090031    -0.06788486
Ti     -0.01770299     6.59717800     1.19389801    -0.27378916     0.11402898    -0.43646858
Ti      0.03184001     2.80816200     1.20387697    -0.48170176     0.03638292     1.29520501
Ti      5.71205523     2.71680521     3.65016079     0.57491688     2.36318818     0.02802915
Ti      5.70285924    -0.94781376     3.66140380    -0.13390233    -2.35089548    -0.27637544
Ti      1.92012621     2.86640722     3.54987583    -0.61020965     0.93052526     1.56190307
Ti      1.84585724    -0.88917479     3.62630183     0.05423898    -0.63776160    -0.48584972
O       3.78608701     4.81472498     0.75802699     0.27454173    -0.11595834     0.07098047
O       3.73817202     1.04481799     0.81180600     0.46294812    -0.79936347    -0.24074148
O      -0.04821202     4.78003598     0.80386099     0.16457637    -1.94205701    -0.30009310
O      -0.09952199     0.85651402     0.86602699     0.33101860     1.41688817    -0.45591615
O       5.69186823     4.66666325     4.04123982     0.12951320     0.82186629     0.51509526
O       5.88070323     0.85839122     4.14966184    -0.13981381     1.04901228    -0.75077371
O       1.92072821     4.78699625     4.02854084     0.14560754     0.60283984     0.54365868
O       1.66134621     1.03599925     4.02908181     1.02631894    -0.69595623     0.19074019
O       3.82887321     2.92190320     3.26333884     0.10671933    -0.93972184    -0.67948497
O       3.86989625    -0.93032880     3.23599382    -1.33604391     0.49208927     0.00378698
O      -0.00763576     2.96916524     3.16651782     0.92342876    -0.45420740     0.41368525
O       0.03946625    -1.05955880     3.28531382    -0.55214255     0.16177001    -0.27255838
O       5.68973501     6.63533502     1.68630602     0.08181845     0.26920026    -0.11933780
O       5.81074398     2.86320501     1.70086702    -1.88068321    -0.38393244    -0.98349438
O       1.86307202     6.71920300     1.62541603     0.94856258     0.03532106     0.46786022
O       1.96957502     2.96339398     1.59349002    -0.67540411    -0.41873953     0.26131520
