# total energy = -19959.41747356 eV

CRYSTAL
PRIMVEC
        5.93400000     0.00000000     0.00000000
        0.00000000     9.29699974     0.00000000
        0.00000000     0.00000000     4.64899994
PRIMCOORD
24 1
Ti      4.40774502     6.75718702     2.29862802     0.54692064     1.48262127     2.01590298
Ti      4.47119702     2.43447899     2.32145800     0.08543779    -2.85854764     0.75484634
Ti      1.48178600     6.96989701     2.17669500    -0.18048277     0.12821505     1.34103520
Ti      1.49925498     2.55647498     2.29984402    -0.13811637    -2.59406382     2.00523392
Ti      2.97472001     4.64245598     4.64892898    -0.65177566    -1.07270783    -0.53188508
Ti      2.89004398     9.13140902     4.59686598     1.77288042     0.93965885    -2.15365939
Ti      5.91296600     4.67997502     0.06295601     0.36997725    -0.58918111    -1.16294022
Ti      0.04286801     9.19794798     0.22449398    -2.40748445     2.31006763    -2.67785482
O       4.38169003     5.65144999     0.85568300     0.71253034    -0.19352752    -0.73923434
O       4.52475003     1.06681901     0.99680600     0.24702140    -1.08322493    -0.96535884
O       1.43555601     5.53992800     0.89118598     0.21176385     1.03613902    -0.01740509
O       1.61835400     0.81945097     0.71267698    -0.72336909     1.20753396     1.69395215
O       4.61032799     8.37116398     3.77320498    -0.87393346     0.04338404    -0.01864282
O       4.38167098     3.64605200     3.91818902     0.50169260     0.69077263    -0.07733007
O       1.44650702     8.36443200     3.56558901     0.79511061    -0.37182305     1.09860811
O       1.45510901     3.68983300     3.86590398    -0.05212939     0.68597186     0.06511270
O       2.94815600     5.88792898     3.12149198     0.04918934     1.24017695    -0.13640607
O       2.83364802     1.44669900     3.15651197     0.85300596     0.66195621    -0.65495278
O       0.05372800     5.98166702     3.18877501    -0.52369200     0.36633657    -0.44922177
O       0.11876600     1.54936500     3.17941101    -0.66053979     0.49378440    -0.71237170
O       3.04813002     7.85622800     1.38342300    -0.58965496    -0.55834508     0.42094348
O       2.99864898     3.50995602     1.53623400    -0.02786203    -0.54908757     0.03876865
O       5.89870901     7.86066801     1.39557403     0.47015878    -1.31333129     1.02030333
O       5.87097102     3.48106802     1.52356200     0.21335022    -0.10277886    -0.15744413
