# total energy = -19517.93118130 eV

CRYSTAL
PRIMVEC
        5.93400000     0.00000000     0.00000000
        0.00000000     9.29699974     0.00000000
        0.00000000     0.00000000     4.64899994
PRIMCOORD
23 1
Ti      4.56560600     7.11729002     2.24485398    -0.22928001    -0.17364774    -0.01100921
Ti      4.44049898     2.28918999     2.41083498     0.40631878    -0.35477586    -0.10438014
Ti      1.39964001     7.02308102     2.12413600     0.35310953     0.35531888     1.38269274
Ti      1.47185302     2.26478899     2.29314500    -0.67254119    -0.04020590     0.73797090
Ti      2.98344598     4.43722501     0.21557099    -0.36614477    -0.84220963    -0.42135588
Ti      2.94150001     9.25858597     4.61809298    -0.46805819     0.21036748    -0.59401093
Ti      5.93018098     4.65226597     0.00955800     0.07270414    -0.94414800    -0.72838043
Ti      5.87539198     0.13438398     4.60682801     0.48685990     0.05402481     0.02354566
O       4.35155698     5.52743402     1.02320898    -0.02110234     0.30283827    -0.54273411
O       4.39849400     0.92219899     0.87131098     0.94615474     0.16066881     0.17557196
O       1.48811300     5.50639700     0.89281600     0.49455445     0.99124857     0.38550595
O       1.55652498     0.97464702     0.91744899    -0.57463380    -0.79076030    -0.73003699
O       4.53537897     8.43780401     3.63024902    -0.19595027    -0.20972908     0.62725710
O       4.39806700     3.48852900     3.87916299    -0.20326018     2.11705844     0.37857477
O       1.53090698     8.39268901     3.63206902    -0.21381739    -0.37255453     0.33500484
O       1.48140001     3.68973500     3.73399602     0.40439097     1.14957819     0.80606891
O       3.01019198     1.30599199     3.16692502    -0.30127118     0.32794073     0.11921618
O       5.92815101     6.08319899     3.24220302     0.22392131     0.01568014    -0.30349159
O       0.02426902     1.55447003     3.38571600     0.03183258    -0.75719813    -0.85416167
O       3.03936298     8.01337899     1.39374201    -0.34632875    -1.88048395     0.64638457
O       2.93173298     3.21889298     1.57374700     0.64625473     0.79110020    -0.73367973
O       0.04982299     7.97732799     1.38083602    -0.28293227     0.04473824    -0.76300163
O       0.01926798     3.25205498     1.43075098    -0.19078107    -0.15484937     0.16844846
