# total energy = -39038.85211570 eV

CRYSTAL
PRIMVEC
        5.93188753     0.00000000     0.00000000
        0.00000000     9.29428401    -0.00002646
        0.00000000    -0.00002646     9.29428401
PRIMCOORD
46 1
Ti      4.44891576     6.97069300     6.97069300    -0.00000000     0.00000000     0.00000000
Ti      4.44891576     6.97070623     2.32355100     0.00000000     0.00000000     0.00000000
Ti      4.44891576     2.32355100     6.97070623     0.00000000     0.00000000     0.00000000
Ti      4.44891576     2.32356423     2.32356423     0.00000000     0.00000000     0.00000000
Ti      1.48297199     6.97069300     6.97069300    -0.00000000     0.00000000     0.00000000
Ti      1.48297199     6.97070623     2.32355100     0.00000000     0.00000000     0.00000000
Ti      1.48297199     2.32355100     6.97070623     0.00000000     0.00000000     0.00000000
Ti      1.48297199     2.32356423     2.32356423     0.00000000     0.00000000     0.00000000
Ti      2.96594376     4.65016953     4.64389974     0.00000000    -0.04340949    -0.02685518
Ti      2.96594376     4.76544239    -0.11831361    -0.00000000    -0.00210136     0.00210136
Ti      2.96594376     0.04403674     4.60309204    -0.00000000    -0.04482180     0.04482180
Ti      2.96594376     0.00322904    -0.00304076     0.00000000     0.02685518     0.04340949
Ti      0.00000000     4.64389974     4.65016953     0.00000000    -0.02685518    -0.04340949
Ti      0.00000000     4.60309204     0.04403674    -0.00000000     0.04482180    -0.04482180
Ti      0.00000000    -0.11831361     4.76544239    -0.00000000     0.00210136    -0.00210136
Ti      0.00000000    -0.00304076     0.00322904     0.00000000     0.04340949     0.02685518
O       4.44891576     5.55525216     5.55525216     0.00000000     0.01954193     0.01954193
O       4.41324686     5.48419546     0.95948699     0.03454073    -0.00924723     0.01827695
O       4.48458465     0.95948699     5.48419546    -0.03454073     0.01827695    -0.00924723
O       4.44891576     0.94047716     0.94047716     0.00000000    -0.02534929    -0.02534929
O       1.48297199     5.55525216     5.55525216    -0.00000000     0.01954193     0.01954193
O       1.51864088     5.48419546     0.95948699    -0.03454073    -0.00924723     0.01827695
O       1.44730310     0.95948699     5.48419546     0.03454073     0.01827695    -0.00924723
O       1.48297199     0.94047716     0.94047716    -0.00000000    -0.02534929    -0.02534929
O       4.44891576     8.38613390     8.38613390    -0.00000000    -0.01954193    -0.01954193
O       4.48458465     8.45721707     3.68761506    -0.03454073     0.00924723    -0.01827695
O       4.41324686     3.68761506     8.45721707     0.03454073    -0.01827695     0.00924723
O       4.44891576     3.70665136     3.70665136    -0.00000000     0.02534929     0.02534929
O       1.48297199     8.38613390     8.38613390     0.00000000    -0.01954193    -0.01954193
O       1.44730310     8.45721707     3.68761506     0.03454073     0.00924723    -0.01827695
O       1.51864088     3.68761506     8.45721707    -0.03454073    -0.01827695     0.00924723
O       1.48297199     3.70665136     3.70665136     0.00000000     0.02534929     0.02534929
O       2.96594376     6.06500796     7.87637804     0.00000000    -0.00387877     0.00387877
O       2.96594376     6.09080617     3.26199678     0.00000000     0.00572971     0.00861346
O       2.96594376     1.38510521     7.85060629    -0.00000000    -0.00861346    -0.00572971
O       2.96594376     1.45387159     3.19325687     0.00000000     0.01438481    -0.01438481
O       0.00000000     6.03473447     7.90665155     0.00000000    -0.00180594     0.00180594
O       0.00000000     6.07107951     3.24488511     0.00000000     0.01658131     0.02045828
O       0.00000000     1.40221689     7.87033296    -0.00000000    -0.02045828    -0.01658131
O       2.96594376     7.90665155     6.03473447     0.00000000     0.00180594    -0.00180594
O       2.96594376     7.87033296     1.40221689     0.00000000    -0.01658131    -0.02045828
O       2.96594376     3.24488511     6.07107951    -0.00000000     0.02045828     0.01658131
O       0.00000000     7.87637804     6.06500796     0.00000000     0.00387877    -0.00387877
O       0.00000000     7.85060629     1.38510521     0.00000000    -0.00572971    -0.00861346
O       0.00000000     3.26199678     6.09080617    -0.00000000     0.00861346     0.00572971
O       0.00000000     3.19325687     1.45387159     0.00000000    -0.01438481     0.01438481
