# total energy = -4984.34963388 eV

CRYSTAL
PRIMVEC
        3.54738468     0.00000000     0.00000000
        1.51939665     3.20552209     0.00000000
       -2.53342425    -1.60278229     4.65235906
PRIMCOORD
6 1
Ti      1.13945787     2.40426495     1.16308972     0.00055793    -0.00055793     0.00000000
Ti      1.39389944    -0.80152495     3.48926906    -0.00055793     0.00055793     0.00000000
O       0.37988601     0.80137631     0.75783122     0.00076362     0.00084949    -2.23633530
O       2.15347118     0.80136356     3.89452760    -0.00076362    -0.00084949     2.23633530
O      -0.37985404    -0.80135613     3.08401060     0.00084949     0.00076362    -2.23633530
O       2.91321118     2.40409597     1.56834822    -0.00084949    -0.00076362     2.23633530
