# total energy = -19959.56646262 eV

CRYSTAL
PRIMVEC
        7.60600008     0.00000000     0.00000000
        0.00000000     7.60600008     0.00000000
       -1.89786986    -1.89786986     4.85670466
PRIMCOORD
24 1
Ti      3.89417702     6.62354399     1.06047698    -0.69142929    -0.36465353     2.12031757
Ti      3.76125701     2.66840100     1.22264800     1.31298445     0.72646752     0.79678825
Ti     -0.06833398     6.74189200     1.16833500     0.22632607     1.30189579     0.13657885
Ti      0.05385998     2.97676898     1.23854099    -1.77146734    -1.87361988     0.46422750
Ti      5.65164420     2.92991722     3.72248181    -1.51333851     0.74856308    -2.15242424
Ti      5.72218025    -0.77033576     3.68680679    -1.39884133    -1.28417163    -0.26573467
Ti      1.78964920     2.70007924     3.69022480     2.39832258    -0.15165658    -0.14002799
Ti      1.97269923    -0.99525175     3.62020783     1.57545202     0.12870382    -1.38400041
O       3.99089702     4.67262797     0.69005798    -1.11497293    -0.61736941     0.82393757
O       4.14013897     0.93391699     0.70520198    -1.04435164    -0.71491041     0.04783436
O      -0.16265300     4.87026001     0.82227001     0.97055401    -1.11677167     0.48704605
O      -0.26262601     1.05606703     0.73850601     1.09538728    -0.95425784     0.71028140
O       5.36266823     4.86277925     4.08437983     1.41632098    -0.90892259    -0.08574427
O       5.44459624     1.02934320     4.22628284     1.26371747     1.17531134    -1.09686567
O       2.24800624     4.70654421     4.10408279    -1.34710506     0.12844362    -1.91095951
O       2.03284324     0.84278923     4.08048080    -1.19840011     0.98391526    -0.24475446
O       3.80093424     2.83747821     3.13756182    -0.36662248    -0.02389507     0.32281472
O       3.82882823    -0.80676776     3.21213083    -1.29205952    -0.27663358    -0.59107550
O       0.00047023     2.86783425     3.21034279    -0.20774701     0.59329179     1.29407115
O      -0.02257475    -0.88602179     3.16049980     0.96267486    -0.04562090     0.74158870
O       5.64765002     6.68875303     1.72348897     1.20543440    -0.19380443    -0.46486488
O       5.72793399     2.73365199     1.72160098     0.32122526     0.83282716     0.42224677
O       1.96458398     6.66123602     1.41582500    -0.62625668    -0.05509336     0.71708788
O       1.87885499     2.25720101     1.68710597    -0.17580747     1.96196173    -0.74836922
