# total energy = -19958.37157076 eV

CRYSTAL
PRIMVEC
        7.60600008     0.00000000     0.00000000
        0.00000000     7.60600008     0.00000000
       -1.89786986    -1.89786986     4.85670466
PRIMCOORD
24 1
Ti      3.62126502     6.86179600     1.27660900     2.11365250    -2.18666723    -0.60778227
Ti      3.69525601     3.02234099     1.20485399     2.26248138     1.62474497    -0.76293529
Ti     -0.03012098     6.55006699     1.36110802    -1.88978235    -2.28682382    -1.01753014
Ti      0.14315599     2.68221400     1.29973801    -2.81083900     1.36169273    -1.43179337
Ti      5.76966925     2.69466221     3.55288082     1.28586290     0.43931453     1.31547817
Ti      5.62571224    -1.14722675     3.64286280     0.74431562    -1.09060297    -0.37241235
Ti      2.03317324     2.93695321     3.54633384    -0.98486683    -0.47711773     4.04440334
Ti      1.87886621    -0.89255078     3.68915883    -0.98930533     0.17199632    -0.27865241
O       3.93342202     4.91658800     0.82536400    -0.68680696    -1.63228679    -0.18233808
O       3.66727603     1.09465400     0.79027198     0.55726830    -0.55577192    -0.76566221
O       0.05421098     4.68116101     0.61292299     0.39947759     0.99735468     1.59227038
O      -0.08776997     0.67974098     0.82991302     0.34164600     1.93077346    -0.55439818
O       5.53359322     4.56662123     3.70780079     0.20177897     2.48115198     1.49884134
O      -1.64350378     0.86830721     4.21827184    -0.52465951    -1.19320443    -0.76477775
O       1.77814621     4.74969322     3.86591181     1.27914589     3.50367443     1.47428473
O       1.60052824     1.05506021     3.88549280     1.24772957    -0.92436412     1.39689706
O       3.91082123     2.76104924     3.12114484    -1.03885745    -0.50932570    -0.59669979
O       3.79671522    -0.65699880     3.17759281    -1.14338800    -0.04521338     0.28224270
O       0.19014122     3.10375025     3.25229681    -2.01645062    -1.34746090    -0.50220811
O      -0.12526679    -0.89293978     3.24347580     2.73438440    -0.56290134     0.59240656
O       5.77531001     6.33498798     1.71565001    -1.71695247     1.23955655    -0.63759037
O       5.91862402     2.89003001     1.65882097    -0.82376068    -0.87616903    -1.39085883
O       1.89595303     6.64462901     1.57493701    -0.03790116    -0.04922842     0.84516152
O       1.93649102     3.03028097     1.74981999     1.49582698    -0.01312214    -3.17634665
