# total energy = -19961.63191656 eV

CRYSTAL
PRIMVEC
        7.60600008     0.00000000     0.00000000
        0.00000000     7.60600008     0.00000000
       -1.89786986    -1.89786986     4.85670466
PRIMCOORD
24 1
Ti      3.78728898     6.63041801     1.23750698    -0.08453765     0.26329777     1.05487954
Ti      3.79204602     2.89343500     1.18025699    -0.27421057    -0.25621181     0.46461908
Ti      0.02796099     6.61759599     1.17732498     0.05802879    -0.51337442     0.69687077
Ti      0.05102798     2.85944499     1.13566200     0.29773051     0.39199130     0.40272284
Ti      5.74511124     2.78521624     3.53879084    -1.14991526     0.92480455     0.39658458
Ti      5.73014124    -1.00874477     3.67741379    -0.68956292    -0.65688959    -0.72786775
Ti      1.81849021     2.90793022     3.65190983     1.76883247    -0.19355297    -0.26398452
Ti      1.83160523    -0.93539276     3.71541883     0.85107043    -0.01215412    -0.38081446
O       3.66637701     4.74568301     0.78036102     0.38320610     0.26923265     0.03226607
O       3.68691199     0.94033501     0.80930300     0.42910905     0.68544479     0.45392278
O       0.02701000     4.68593498     0.78300601     0.12357061     0.46041327    -0.64627273
O       0.03818802     0.87501199     0.80179498    -0.15405053     0.63631947     0.31178725
O       5.77139622     4.66212423     4.10205679    -0.26054104     0.15552017    -0.14565999
O       5.64221823     0.88482924     4.05177981     0.57162227     0.78097416    -0.56213412
O       1.94769820     4.74611323     4.17452084     0.17545240     0.09480227    -0.55861762
O       1.82247825     0.98608524     3.97836383     0.20957301    -0.14966860     0.62847066
O       3.81504221     2.93399220     3.13636080     0.69503655    -0.48383294     0.53911657
O       3.78798522    -0.98800779     3.24295080     0.48069028    -0.11934371     0.38014186
O       0.10207824     3.04401424     3.11997684    -2.29234629    -0.79802469     0.52419002
O       0.02794823    -1.11726479     3.28343080    -0.86971993     0.34079651    -0.04732811
O       5.72322299     6.61068800     1.73560200     0.04020847     0.06155635    -0.80700479
O       5.73192901     3.03227100     1.61694601     0.13859562    -0.99879939    -0.06555956
O       1.88150802     6.66561703     1.75759302    -0.07659705    -0.16789258    -1.14485250
O       1.92898999     2.99458601     1.63131498    -0.37124481    -0.71540843    -0.53547563
