# total energy = -19518.13274564 eV

CRYSTAL
PRIMVEC
        7.60600008     0.00000000     0.00000000
        0.00000000     7.60600008     0.00000000
       -1.89786986    -1.89786986     4.85670466
PRIMCOORD
23 1
Ti      3.79054898     6.67320400     1.21931800     1.13458299    -0.49745080     0.24543117
Ti      3.81823400     2.80178600     1.13824100    -0.57119495     0.95161885     1.73998185
Ti      0.00944401     6.62064802     1.17310902    -1.52339153    -0.81063390    -0.76821120
Ti      0.00542798     2.85369500     1.16690601     0.11988930     0.75972861    -0.32514697
Ti      5.68521425     2.90366823     3.55950982    -0.68570627    -0.93234329     1.42656452
Ti      5.75883524    -0.83383179     3.67764282    -1.97526282    -0.00173472     0.02338368
Ti      1.97491522     2.81194525     3.71415780     1.27174214     0.76773837     0.58746052
Ti      1.80776823    -0.94200377     3.57235279     0.96031099    -0.40010160     0.38321356
O       3.81051499     4.69669501     0.81256199    -0.33894146     0.91205805     0.54338049
O       3.82197099     1.01117798     0.81939102    -0.38364293    -1.48898450    -0.55514560
O      -0.23141302     4.68950598     0.71941102     0.80384490     0.96369302     1.01883497
O       0.20300901     0.97041598     0.83813199    -0.99308254    -1.10049247    -0.63330022
O       5.56775722     4.67214621     3.98468183     1.01351253     2.02766501     1.04698239
O      -1.34136976     1.07211824     4.11424982    -1.03331929    -0.82754020    -0.55211196
O       1.87695921     4.80380223     4.05621982    -0.35215487    -0.20709781     0.27260157
O       1.59999922     0.99218120     4.07452480     0.16215028    -1.05265888    -0.29890139
O       3.85846322     2.73606022     3.35156581    -1.34526107    -0.31130054    -0.83774285
O       3.82788624    -0.78036176     3.22917780    -1.25602293     0.28330328     0.24926829
O      -0.16914177    -1.01071976     3.18448079     3.93341777    -0.51215468    -0.51453398
O       5.65354400     6.54744598     1.68044702     0.16718399     0.74883330    -0.79723434
O       5.65859298     2.82207597     1.65872101     1.27806526    -0.29743484    -0.87779808
O       1.87885700     6.43058898     1.63247901    -0.43179971     0.50780515     0.27790756
O       1.78315202     2.78369401     1.91334100     0.04508020     0.51748407    -1.65488345
