# total energy = -19073.00287520 eV

CRYSTAL
PRIMVEC
        7.60600008     0.00000000     0.00000000
        0.00000000     7.60600008     0.00000000
       -1.89786986    -1.89786986     4.85670466
PRIMCOORD
22 1
Ti      3.67166899     6.76299300     0.93326298     0.78775596     0.11065698    -0.65666899
Ti      4.02577297     2.97615900     1.17131199     1.42283976     0.32255375     1.00439282
Ti     -0.15511000     6.55881101     1.12281099    -0.84737344    -0.43502105     1.89135844
Ti      0.21425302     2.72190801     1.18948198    -1.39072950    -0.02608797    -0.28881701
Ti      5.93841821     2.74840820     3.65851782    -0.20276833     0.12445584    -0.63599577
Ti      5.50633721    -1.19667979     3.75051280     1.18448941     0.90308644    -2.15590011
Ti      2.11171722     2.81158223     3.46755479     0.10457837     0.43918958     1.84342637
Ti      1.07688724    -0.49510877     3.82915881     0.22694648    -2.38863183    -0.52232083
O       3.98707498     4.84100699     0.77455198    -0.98753692     0.46752366    -1.03913950
O       3.92585801     0.96843702     1.10153600    -1.16127671     0.44197974    -0.64042681
O       0.01207000     4.54269199     0.92640399     0.63991465     1.08385768    -1.57072299
O       6.84316901     0.98664199     0.60805302     0.49151977    -1.36457571     1.17782254
O       5.97870225     4.61193420     4.15396680     0.19300944    -0.18571522    -0.93285879
O      -1.17445779     0.38473324     4.17567280     1.41245327     1.46195500    -0.24144133
O       1.70177921     5.09188024     3.88547380    -0.28334236    -0.46589641     1.79788029
O       2.35046125     0.91079120     4.13492584    -0.79388136     0.34471718    -0.99418837
O       3.92382121     2.85347423     3.18669783     1.30902624     0.09367381     1.01645387
O       0.21006924     2.48677525     3.27882479     0.08564785     0.11357364    -0.85670860
O       5.61248699     6.47493599     1.63334299    -0.45569041     0.43881497     1.40443580
O       5.90307801     3.08509098     1.71701603    -0.40073640    -0.97607005     1.04410584
O       1.57441699    -0.72507099     2.03334199    -0.14542422     0.39377668    -1.02399981
O       2.13440400     3.07760900     1.54031400    -1.18942233    -0.89781619     0.37931319
