# total energy = -19069.98489327 eV

CRYSTAL
PRIMVEC
        5.17600016     0.00000000     0.00000000
        0.00000000     5.50899976     0.00000000
        0.00000000     0.00000000     9.26300011
PRIMCOORD
22 1
Ti      1.71138801     3.39740801     3.41544100     0.75764113     0.15157661    -0.03802123
Ti      3.90041099     2.40849802     5.88834201    -1.13267009    -0.76541538    -0.13314694
Ti      4.19536301     2.39091198     1.38118501     0.80631779    -2.70605391    -0.38656525
Ti      0.99921201     3.07405102     8.14107602     2.04472403    -3.45534847    -0.02258664
Ti      1.70081802     0.42128499     1.17718898     0.69762642     1.76973467    -1.24292495
Ti      3.29743399     5.06681602     7.73240100    -0.24137063     2.08571642     1.29069118
Ti      0.72829300     0.01858899     6.19610901     0.21718759     1.19652758    -1.80651612
Ti      4.37713101     5.01984599     3.41579200     0.38738723     1.38584980     0.90540223
O       3.42154400     3.62243699     4.24034101     0.44030595    -1.68553718     2.58687552
O       0.66955199     2.02966903     0.46444400     1.97336303    -0.11010933    -2.22105986
O       4.69005198     3.82161502     8.10862698    -4.12786755     1.61073219     0.68216020
O       3.43139098     0.69013302     0.33431201    -1.24920230     0.37183205    -0.90617922
O       1.61377899     4.74906001     8.60590801     0.02526727     2.27315377     3.50585447
O       4.25065500     0.71465398     5.06376701     1.03039594     0.30849778    -1.05635741
O       0.88799800     4.85160800     4.35208499    -0.35626684    -0.41674127     2.28931933
O       0.13332298     3.48677398     2.38436098    -0.99425290     1.27465443    -0.03350431
O       0.01441003     1.58658299     7.10670198     0.03259620    -0.50119792    -0.28388100
O       2.68591798     2.07666801     2.35099598    -1.56834420    -0.18962793    -0.17197884
O       2.44620402     3.67662902     6.87973997     0.12764246    -2.79619451    -2.04146464
O       5.07259898     0.89991899     2.32109800     0.10488691    -1.05710277     0.32654822
O       2.48927402     0.75545302     6.57702101    -0.46992173     1.27545302     0.29037844
O       2.35428699     4.96434000     2.57846600     1.49455428    -0.02039965    -1.53304345
