# total energy = -19956.34565171 eV

CRYSTAL
PRIMVEC
        5.47575696     0.00000000     0.00000000
        0.86931903     5.76266005     0.00000000
        0.00000000     0.00000000     9.82823302
PRIMCOORD
24 1
Ti      2.49985616     3.41494695     3.64620438     0.36065494    -1.32108832     0.75246884
Ti      3.84521976     2.34771294     6.18202886    -0.36065494     1.32108832    -0.75246884
Ti      5.07664833     2.34771488     1.26787293    -0.60731896    -0.26069479     0.11399530
Ti      1.26842762     3.41494523     8.56036042     0.60731896     0.26069479    -0.11399530
Ti      2.06519677     0.53361703     1.26791235     0.36065494    -1.32108832    -0.75246884
Ti      4.27987917     5.22904303     8.56032100    -0.36065494     1.32108832     0.75246884
Ti      0.83376819     0.53361492     6.18198944     0.60731896     0.26069479     0.11399530
Ti      5.51130775     5.22904514     3.64624380    -0.60731896    -0.26069479    -0.11399530
O       2.03921364     2.02913050     5.01527213     0.99654556     1.19635069    -0.42473149
O       4.30586229     3.73352939     4.81296106    -0.99654556    -1.19635069     0.42473149
O       1.31090435     2.02915379     0.10118716    -0.41577530     0.09863244     0.50230376
O       5.03417163     3.73350615     9.72704580     0.41577530    -0.09863244    -0.50230376
O       3.87120288     0.85219930     0.10115528    -0.99654556    -1.19635069    -0.42473149
O       2.47387305     4.91046059     9.72707768     0.99654556     1.19635069     0.42473149
O       4.59951222     0.85217606     5.01530406     0.41577530    -0.09863244     0.50230376
O       1.74556365     4.91048389     4.81292918    -0.41577530     0.09863244    -0.50230376
O       0.72771602     3.50517650     2.65485098     0.11810444     0.44667946     0.50633190
O       5.61735990     2.25748333     7.17338226    -0.11810444    -0.44667946    -0.50633190
O       3.27737802     2.25742973     2.25929691     0.64336764     0.55147484    -0.03574246
O       3.06769790     3.50523010     7.56893617    -0.64336764    -0.55147484     0.03574246
O       0.29305661     0.62384641     2.25926547     0.11810444     0.44667946    -0.50633190
O       6.05201931     5.13881342     7.56896754    -0.11810444    -0.44667946     0.50633190
O       2.63303849     0.62390001     7.17341358    -0.64336764    -0.55147484    -0.03574246
O       3.71203743     5.13875982     2.65481960     0.64336764     0.55147484     0.03574246
