# total energy = -4989.44290830 eV

CRYSTAL
PRIMVEC
        3.97500034     0.00000000     0.00000000
        0.78712051     3.89628913     0.00000000
       -2.38109664    -1.94817419     5.09879722
PRIMCOORD
6 1
Ti      0.59020336     2.92236585     1.27469944    -0.00002083     0.00002083     0.00000000
Ti      1.79082085    -0.97425091     3.82409794     0.00002083    -0.00002083    -0.00000000
O       0.19682178     0.97406659     0.83055246    -0.00042577    -0.00088112    -0.84016663
O       2.18420232     0.97404825     4.26824498     0.00042577     0.00088112     0.84016663
O      -0.19679569    -0.97404524     3.37995096    -0.00088112    -0.00042577    -0.84016663
O       2.57781967     2.92215999     1.71884642     0.00088112     0.00042577     0.84016663
