# total energy = -4975.16856407 eV

CRYSTAL
PRIMVEC
        4.28995138     0.00000000     0.00000000
       -0.00000696     2.85996726     0.00000000
       -2.14500097    -1.43002727     4.75254520
PRIMCOORD
6 1
Ti     -0.00018437     2.14507934     1.18813605    -0.00899269    -0.01392767    18.94647625
Ti      2.14512787    -0.71513965     3.56440850     0.00899269     0.01392767   -18.94647625
O       0.00004514     0.71498405     0.77415066     0.00813394     0.01421898    -9.52596723
O       2.14489825     0.71495559     3.97839394    -0.00813394    -0.01421898     9.52596723
O      -0.00001838    -0.71498668     3.15042316    -0.00145704    -0.00022369     0.20976559
O       2.14496173     2.14492627     1.60212149     0.00145704     0.00022369    -0.20976559
