# total energy = -19904.74693874 eV

CRYSTAL
PRIMVEC
        7.91760723     0.00000000     0.00000000
        0.00002493     3.19634533     0.00000000
        0.00000000     0.00000000    12.25448192
PRIMCOORD
24 1
Ti      2.86976669     1.89415124     4.54632541    -0.24304801     0.19576335     1.68983555
Ti      5.04786569     1.30219398     7.70815662     0.24304801    -0.19576335    -1.68983555
Ti      6.82843517     1.30219507     1.58086665    -0.24340566    -0.19560729    -1.68866930
Ti      1.08919721     1.89415032    10.67361550     0.24340566     0.19560729     1.68866930
Ti      2.86975433     0.29597863     1.58091578    -0.24362703     0.19637939    -1.68869501
Ti      5.04787804     2.90036669    10.67356637     0.24362703    -0.19637939     1.68869501
Ti      1.08918486     0.29597749     7.70810750     0.24329793     0.19622075    -1.68991140
Ti      6.82844752     2.90036784     4.54637454    -0.24329793    -0.19622075     1.68991140
O       2.50598156     1.12548750     6.25336831     3.92556125     0.04119269    -0.36253185
O       5.41165087     2.07085771     6.00111372    -3.92556125    -0.04119269     0.36253185
O       1.45288608     1.12550038     0.12616676    -3.92597031     0.04121583    -0.36338083
O       6.46474641     2.07084484    12.12831494     3.92597031    -0.04121583     0.36338083
O       5.41163852     0.47268505     0.12612701    -3.92562784    -0.04078465    -0.36288049
O       2.50599386     2.72366017    12.12835468     3.92562784     0.04078465     0.36288049
O       6.46473406     0.47267217     6.25340811     3.92485317    -0.04047586    -0.36220069
O       1.45289826     2.72367310     6.00107392    -3.92485317     0.04047586     0.36220069
O       0.28768017     1.94419841     3.31024127    -0.56853077     0.11701455     0.98725410
O       7.62995221     1.25214681     8.94424076     0.56853077    -0.11701455    -0.98725410
O       4.24649421     1.25211710     2.81703865    -0.56794122    -0.11699706    -0.99147483
O       3.67113823     1.94422818     9.43744316     0.56794122     0.11699706     0.99147483
O       0.28766781     0.34602575     2.81699952    -0.56933244     0.11761979    -0.99157407
O       7.62996456     2.85031947     9.43748229     0.56933244    -0.11761979     0.99157407
O       3.67112587     0.34605546     8.94427978     0.56767279     0.11731228    -0.98831725
O       4.24650656     2.85028976     3.31020219    -0.56767279    -0.11731228     0.98831725
