# total energy = -19074.13246392 eV

CRYSTAL
PRIMVEC
        5.17600016     0.00000000     0.00000000
        0.00000000     5.50899976     0.00000000
        0.00000000     0.00000000     9.26300011
PRIMCOORD
22 1
Ti      1.83265401     3.36320602     3.28627100     0.54957736     0.56058991    -1.03947631
Ti      3.54302097     2.24390998     5.86820300     1.41341898     1.24974249    -0.23528534
Ti      4.40914602     2.27369901     1.19244198    -0.58232217    -0.24314366    -1.05840889
Ti      0.72519398     3.24125802     8.12835301    -0.46575500    -0.22028294     0.69189132
Ti      1.77553102     0.49896800     1.33785000     0.40812036     0.72634128    -1.06435534
Ti      3.12093100     4.99748100     8.03621002     2.16092122     0.80664304     1.24614037
Ti      0.70990001     0.21070399     5.97757198    -0.05992498     1.35346032    -1.15113473
Ti      4.40185200     4.96789703     3.42900899     0.74282669     0.41480471    -0.55645841
O       3.46796999     3.59617402     4.38319098     0.21621931    -1.15537320     2.25249058
O       0.90167401     2.04370000     0.26781401     0.25933750    -0.41718890    -0.73959944
O       4.31634902     3.72089301     9.18259300    -0.60463318     0.47685162    -1.13172701
O       3.42245900     0.85157801     0.20332498     0.44792773     0.18916539    -1.92543328
O       1.73631999     4.76602702     9.13545998    -2.49070518    -0.61741646    -0.14692394
O       4.71641501     1.08615499     4.76694101    -1.52482621    -0.86011069    -0.76842126
O       1.13597200     4.83421600     4.29389597    -1.25149290    -0.58884378     1.49719841
O       0.13781702     3.54915202     2.38274799    -0.14493622    -0.24490409     0.93037742
O       5.15614897     1.97145498     6.91455899    -0.23305233    -0.27643457     0.11994175
O       2.68088699     1.97841599     2.13785498    -0.15315064     0.79706902     2.03896038
O       2.44348098     3.33910099     7.32583301     0.50073564    -0.21126197    -1.97462904
O       0.02825299     0.71489000     2.06239901     0.29232297    -0.65116220     1.19606401
O       2.44032502     0.80353401     6.32648701    -0.05598194    -1.42393068     1.21902140
O       2.74919297     4.67109701     2.25889797     0.57537325     0.33538536     0.59976711
