# total energy = -39480.93948375 eV

CRYSTAL
PRIMVEC
        5.93188753     0.00000000     0.00000000
        0.00000000     9.29428401    -0.00002646
        0.00000000    -0.00002646     9.29428401
PRIMCOORD
47 1
Ti      4.44891576     6.97453858     6.94297526     0.00000000    -0.05350750     0.07226011
Ti      4.44891576     7.04338922     2.39623399     0.00000000    -0.01753827    -0.01753827
Ti      4.44891576     2.33531023     6.98246547     0.00000000     0.36064877     0.36064877
Ti      4.44891576     2.29584649     2.32740981     0.00000000     0.07226011    -0.05350750
Ti      1.48297199     6.93722253     6.98183829     0.00000000    -0.10074512     0.12242646
Ti      1.48297199     6.99215257     2.34499734     0.00000000    -0.06378061    -0.06378061
Ti      1.48297199     2.11282499     6.75998023     0.00000000     1.28233689     1.28233689
Ti      1.48297199     2.33470952     2.29009375     0.00000000     0.12242646    -0.10074512
Ti      2.96319688     4.65774539     4.63446259    -0.02578252    -0.21223950     0.19746517
Ti      3.10930606     4.74651862     0.09936339    -1.09934910    -0.36793246    -0.36793246
Ti      2.99907401    -0.02427578     4.62287946    -0.05845945     0.08590239     0.08590239
Ti      2.96319688    -0.01266619     0.01061662    -0.02578252     0.19746517    -0.21223950
Ti      0.00274689     4.65774539     4.63446259     0.02578252    -0.21223950     0.19746517
Ti     -0.14336230     4.74651862     0.09936339     1.09934910    -0.36793246    -0.36793246
Ti     -0.03313025    -0.02427578     4.62287946     0.05845945     0.08590239     0.08590239
Ti      0.00274689    -0.01266619     0.01061662     0.02578252     0.19746517    -0.21223950
O       4.44891576     5.55640593     5.55455551     0.00000000     0.05164191    -0.07329472
O       4.44891576     5.59032549     0.94317026     0.00000000     0.97140016     0.97140016
O       4.44891576     0.93436115     5.58151638     0.00000000    -0.12547477    -0.12547477
O       4.44891576     0.90742673     0.90927716     0.00000000    -0.07329472     0.05164191
O       1.48297199     5.56186981     5.55536148     0.00000000     0.06207340    -0.18334441
O       1.48297199     5.45176866     0.80461343     0.00000000     0.02210147     0.02210147
O       1.48297199     0.89222111     5.53937634     0.00000000    -1.07997429    -1.07997429
O       1.48297199     0.90823271     0.91474103     0.00000000    -0.18334441     0.06207340
O       4.44891576     8.38615927     8.37482991     0.00000000    -0.01928277     0.00821776
O       4.44891576     8.37886001     3.73170478     0.00000000    -0.03071981    -0.03071981
O       4.44891576     3.75251933     8.39967457     0.00000000     0.11945633     0.11945633
O       4.44891576     3.72770114     3.73903049     0.00000000     0.00821776    -0.01928277
O       1.48297199     8.38162666     8.37809371     0.00000000     0.03565684     0.02513280
O       1.48297199     8.36942349     3.72226825     0.00000000    -0.10165040    -0.10165040
O       1.48297199     3.73096494     3.73449788     0.00000000     0.02513280     0.03565684
O       2.94865339     5.98862750     7.89398781    -0.05879678     0.24296677    -0.27607333
O       2.96298192     6.05485206     3.21858572     0.09368512     0.00472106    -0.04457703
O       2.92056313     1.48916936     7.92509228     0.05419810    -0.10207283    -0.09784285
O       2.96702599     1.41784750     3.23270869     0.05271432    -0.03974361    -0.03259389
O       0.01729038     5.98862750     7.89398781     0.05879678     0.24296677    -0.27607333
O       0.00296184     6.05485206     3.21858572    -0.09368512     0.00472106    -0.04457703
O       0.04538064     1.48916936     7.92509228    -0.05419810    -0.10207283    -0.09784285
O      -0.00108223     1.41784750     3.23270869    -0.05271432    -0.03974361    -0.03259389
O       2.96702599     7.87983746     6.06497628     0.05271432    -0.03259389    -0.03974361
O       2.96298192     7.86574095     1.40769682     0.09368512    -0.04457703     0.00472106
O       2.92056313     3.27793705     6.13632459     0.05419810    -0.09784285    -0.10207283
O       2.94865339     3.24685903     1.34149873    -0.05879678    -0.27607333     0.24296677
O      -0.00108223     7.87983746     6.06497628    -0.05271432    -0.03259389    -0.03974361
O       0.00296184     7.86574095     1.40769682    -0.09368512    -0.04457703     0.00472106
O       0.04538064     3.27793705     6.13632459    -0.05419810    -0.09784285    -0.10207283
O       0.01729038     3.24685903     1.34149873     0.05879678    -0.27607333     0.24296677
