# total energy = -19517.96077424 eV

CRYSTAL
PRIMVEC
        7.60600008     0.00000000     0.00000000
        0.00000000     7.60600008     0.00000000
       -1.89786986    -1.89786986     4.85670466
PRIMCOORD
23 1
Ti      3.82232702     6.79734798     1.20641200    -1.11366578     0.50752464     1.19251614
Ti      3.85864202     3.04822400     1.16431002    -0.02278975    -0.87097360     0.98134545
Ti     -0.08804499     6.48265500     1.30202602     1.13888831     1.85487653     0.05730940
Ti      0.11358800     2.85882199     0.99678600    -0.54079370    -1.79306667     0.84529650
Ti      5.63100221     2.78110321     3.62846982    -0.28534422    -1.09042814    -1.30887891
Ti      5.60193821    -1.20085775     3.66285882    -0.00387234     1.00975538     1.18238368
Ti      2.03474320     2.90862323     3.62372283    -0.47506831    -0.33901396    -0.50236006
Ti      1.87357825    -0.90576979     3.69725180    -0.16333299     0.90303450    -0.65564363
O       3.87083501     4.81764799     0.65087997    -0.38803309     0.69672705     2.13239251
O       3.92317598     1.16239101     0.94789102     0.21444191    -2.18945533    -1.38423258
O       0.36276101     4.70971801     0.65688100    -0.30250505    -0.17129750     0.84781027
O      -0.28797799     0.86356801     0.85956198     0.76585967    -0.71606098    -0.70572386
O       5.61735023     4.56568522     3.99989081    -0.12717041     1.68951442     0.80167078
O       5.56405923     0.78368923     3.98306281     0.89706157     1.14537263     0.20560271
O       1.96478824     4.77754424     4.21294281    -0.42277848     1.67226617    -1.81099086
O       1.66844724     1.09065125     4.08571479     0.02153942    -1.17012928    -0.74493217
O       3.80505822     2.80619224     3.26982581     0.65001292     0.01876726    -0.40151956
O       3.68989322    -0.87444276     3.24233981     0.31098713    -0.59207591     0.10104054
O      -0.07940876    -1.21382979     3.25256781     0.58026323     0.27075989     0.12095014
O       5.65438999     6.38715898     1.71527800    -0.24141948     0.27744579    -0.68060006
O       5.83013002     3.03909903     1.75559802     1.08810849     0.05307659    -0.86318393
O       1.82806001     6.95317602     1.66022398     0.16258634    -1.01116588     0.34693990
O       2.00104302     2.92449299     1.59541601    -1.74297488    -0.15545333     0.24280710
