# total energy = -4986.24010209 eV

CRYSTAL
PRIMVEC
        3.80938770     0.00000000     0.00000000
        0.00000000     3.97915960     0.00000000
        0.00000000    -0.00006954     5.18119694
PRIMCOORD
6 1
Ti      1.90469368     1.98954497     2.59059841     0.00000000     0.00000000     0.00000000
Ti      0.00000000     0.00000000     0.00000000     0.00000000     0.00000000     0.00000000
O       1.90469368     0.77546603     1.00973895    -0.00000000     0.37850226     0.81538042
O       1.90469368     3.20362391     4.17145782    -0.00000000    -0.37850226    -0.81538042
O       0.00000000     1.21405111     3.60033850     0.00000000    -0.37888099     0.81551437
O       0.00000000     2.76503883     1.58085833     0.00000000     0.37888099    -0.81551437
