# total energy = -19945.89099156 eV

CRYSTAL
PRIMVEC
        5.78717442     0.00000000     0.00000000
        0.91875898     6.09039427     0.00000000
        0.00000000     0.00000000    10.38718466
PRIMCOORD
24 1
Ti      2.64202808     3.60916195     3.85357146     0.10308251    -1.50773068     0.80408787
Ti      4.06390525     2.48123216     6.53361344    -0.10308251     1.50773068    -0.80408787
Ti      5.36536766     2.48123421     1.33997945    -0.21974147    -0.09915592    -0.19971308
Ti      1.34056568     3.60916012     9.04720556     0.21974147     0.09915592     0.19971308
Ti      2.18264872     0.56396492     1.34002111     0.10308251    -1.50773068    -0.80408787
Ti      4.52328462     5.52642936     9.04716390    -0.10308251     1.50773068     0.80408787
Ti      0.88118629     0.56396268     6.53357178     0.21974147     0.09915592    -0.19971308
Ti      5.82474705     5.52643159     3.85361311    -0.21974147    -0.09915592     0.19971308
O       2.15518787     2.14453128     5.30050087     1.44680682     1.59222770    -0.41385417
O       4.55074545     3.94586282     5.08668396    -1.44680682    -1.59222770     0.41385417
O       1.38545816     2.14455590     0.10694188    -0.79607760     0.41167799     0.56734755
O       5.32047523     3.94583825    10.28024272     0.79607760    -0.41167799    -0.56734755
O       4.09136608     0.90066561     0.10690819    -1.44680682    -1.59222770    -0.41385417
O       2.61456725     5.18972849    10.28027641     1.44680682     1.59222770     0.41385417
O       4.86109586     0.90064105     5.30053462     0.79607760    -0.41167799     0.56734755
O       1.84483741     5.18975312     5.08665027    -0.79607760     0.41167799    -0.56734755
O       0.76910271     3.70452303     2.80583776     0.31860017     0.68223014     0.89147353
O       5.93683061     2.38587101     7.58134713    -0.31860017    -0.68223014    -0.89147353
O       3.46376919     2.38581436     2.38778772     0.65456043     0.94521886     0.19646244
O       3.24216413     3.70457968     7.99939699    -0.65456043    -0.94521886    -0.19646244
O       0.30972334     0.65932583     2.38775451     0.31860017     0.68223014    -0.89147353
O       6.39620999     5.43106821     7.99943015    -0.31860017    -0.68223014     0.89147353
O       2.78278476     0.65938247     7.58138023    -0.65456043    -0.94521886     0.19646244
O       3.92314857     5.43101157     2.80580460     0.65456043     0.94521886    -0.19646244
