# total energy = -19516.60544344 eV

CRYSTAL
PRIMVEC
        5.93400000     0.00000000     0.00000000
        0.00000000     9.29699974     0.00000000
        0.00000000     0.00000000     4.64899994
PRIMCOORD
23 1
Ti      4.52631898     6.94742799     2.27957499     0.80237655    -0.19298939    -0.19125004
Ti      4.52163201     2.36327501     2.31231302    -2.04367862    -0.09405227    -0.16883104
Ti      1.58644101     7.10382500     2.33894402    -0.58850105    -0.07900952    -1.91617242
Ti      1.42347199     2.33441802     2.40179499     1.89580928    -0.17454712    -0.54585235
Ti      2.96460299     4.61634500     0.15675299    -0.76507060    -0.30349184     2.05621121
Ti      3.03921301     0.14429103     4.58729999    -1.14333323    -0.36920489    -0.11384798
Ti      5.89677598     4.45887899     4.58974199     0.42027062     1.87479281    -0.22071695
Ti      5.92896001     0.02228101     4.59962099     0.78223143    -0.14394789     0.61740334
O       4.53085901     5.46661102     1.06504399    -0.81089410    -0.62051387    -1.24777714
O       4.40079999     1.03138699     0.84294602     0.22628364    -0.84090171    -0.32402211
O       1.50868598     5.57351102     1.05877001     0.21134682    -0.27728458    -0.68664421
O       1.51163397     0.95135999     0.89644801    -0.82383704    -0.54872298    -0.47761293
O       4.28299101     8.50449998     3.40702099     0.53080599     0.07778978     2.26866437
O       4.26074498     3.55496800     3.74624298     1.30611935     1.49718144     0.92638218
O       1.38568000     8.45973402     3.72290002     0.30805967    -0.80438483    -0.33230929
O       1.60925098     3.67533799     3.87072399    -1.31492409     0.31833200    -0.71343588
O       2.88833299     1.50091300     3.18618898     0.46305354    -1.33954730     0.51762368
O       5.77921100     5.83336700     3.33553401     0.10782336     1.31667604    -0.41633683
O       5.89103197     1.34968298     3.15594798    -0.27105274     0.31147949     0.53013441
O       2.96284998     7.81195201     1.21629698    -0.39493368    -0.49557106     1.40128260
O       2.83286801     3.30831001     1.52474302     0.99705464     0.19224634    -0.66612268
O       5.92915300     7.82247999     1.49183899     0.42455460     0.78379389    -1.07535813
O       0.00152202     3.16874798     1.35222499    -0.31956407    -0.08812202     0.77858818
