# total energy = -19074.04181025 eV

CRYSTAL
PRIMVEC
        7.60600008     0.00000000     0.00000000
        0.00000000     7.60600008     0.00000000
       -1.89786986    -1.89786986     4.85670466
PRIMCOORD
22 1
Ti      3.61441402     6.69500600     1.17822500     0.83048411     0.63224427     0.00039621
Ti      3.94849801     2.88722500     1.06764500     0.03564733    -0.51475921     1.96093791
Ti     -0.05618402     6.64367898     1.20084198    -1.52472336    -1.23674839     0.99945450
Ti      0.17189598     2.83243801     1.00314798     0.73955162     0.55758224     1.55676523
Ti      5.91635120     2.98841522     3.49434381    -1.10922085     0.27178782     0.62444714
Ti      5.88644120    -1.11213579     3.77140684    -0.32190892     1.01621836    -1.00205723
Ti      2.05245423     2.74272225     3.61218481     0.80429562     0.38697714    -1.33099221
Ti      1.21478025    -0.90829777     3.92730484     1.62793159    -1.12952383    -0.72437953
O       3.75652801     4.74116997     0.62520302     0.16274960     0.39806657     0.36637591
O       3.49314401     0.98054100     1.15490098     0.39187561    -1.05151756    -0.87329017
O       0.29189899     4.73036899     0.50365799    -0.05807019    -0.42609777     0.31446763
O      -0.15416500     0.79900002     0.93641502     0.65999368     1.48201449     0.32662767
O       5.35950920     4.77174123     4.21262980     0.44552246    -0.80166846    -2.66080634
O       5.43120922     0.66754022     4.16026279     0.81390126     0.82591783    -2.92183126
O       2.05051221     4.98199722     4.20265883    -0.78223323     0.09284797    -0.21519884
O       2.27087924     0.66327124     4.03163880    -0.88692242     1.72818409    -0.23922555
O       3.95788525     2.93041221     3.12756979    -0.07193538    -0.23478037    -0.24198178
O       0.25336520     3.14766625     3.18110480    -1.00897247    -0.90699143     0.09435952
O       5.55386097     6.50997398     1.85757598    -0.38390544    -0.01268146     0.56735449
O       5.98586302     2.92797403     1.45068302    -2.41435495     0.23708768     1.54701843
O       1.63654600     6.73775098     1.84970902     1.70608159    -0.93361418     1.51780786
O       2.02269500     2.96361702     1.45972301     0.34421248    -0.38054526     0.33375065
