# total energy = -19072.20321077 eV

CRYSTAL
PRIMVEC
        7.60600008     0.00000000     0.00000000
        0.00000000     7.60600008     0.00000000
       -1.89786986    -1.89786986     4.85670466
PRIMCOORD
22 1
Ti      3.71882699     6.59506500     1.02650099     2.98328090     1.89488136    -1.77217311
Ti      3.82089301     3.01383102     1.16481200     0.97937958    -3.47207736     2.95355739
Ti      0.19308799     6.55679501     1.19837401    -3.40094545     0.76758102    -0.25063534
Ti     -0.02472401     2.85342798     1.23765198    -1.31112066     0.48840540    -0.97508661
Ti      5.72135722     2.86032221     3.74841181    -3.45744264     0.04254277    -2.26381655
Ti     -1.44003576    -0.94381779     3.75316181    -2.16204736     0.55922543    -0.45119021
Ti      1.65871524     2.49508624     3.54558579     6.16146229     1.63503710    -1.49512944
Ti      1.49984523    -0.75692477     3.75002284     1.73955171    -2.27686619     0.69409347
O       4.00667402     4.66739399     0.43475700    -1.05570023     2.71267811     1.31665753
O       4.01218201     1.06516999     0.76353202    -2.08874956    -0.65141982     0.05448298
O       7.14883401     4.84398499     0.77115201     1.45984052    -0.83501208     1.29361530
O      -0.18460301     0.96470097     0.72705398     0.93178844     0.08369175     1.43360472
O       5.55319723     4.77818121     4.25642081     1.64384827     0.65014198    -2.74111889
O       5.79989321     1.01673725     4.27107081     0.60403617    -0.95959082    -2.05051107
O       1.92219625     4.93133220     3.97876679    -1.04015482    -0.15553714     1.03384199
O       2.47359222     0.79952221     3.84631780    -1.57132231     0.52490042    -0.60580869
O       3.88762321     2.81633424     3.10378983    -0.43267260     0.20816250     0.82848791
O      -0.00099178     2.40925925     3.09255180    -2.79944927     0.00118374     1.47980000
O       5.43575200     6.65227102     1.97878800    -0.03249567    -0.17250129     0.83690210
O       5.59393398     3.02991198     1.69555498     3.19792721    -0.02716731     0.04967039
O       1.93864699     6.59769803     1.61014699     0.93055663    -0.13329735     1.18403972
O       1.91289400     3.26555498     1.71694400    -1.27957116    -0.88496195    -0.55328335
