# total energy = -19894.40074852 eV

CRYSTAL
PRIMVEC
        8.78066394     0.00000000     0.00000000
        0.00002765     3.54476212     0.00000000
        0.00000000     0.00000000    13.59027853
PRIMCOORD
24 1
Ti      3.18258486     2.10062270     5.04189642     0.12806670    -0.08923017     2.40261992
Ti      5.59810698     1.44413929     8.54838223    -0.12806670     0.08923017    -2.40261992
Ti      7.57276696     1.44414050     1.75318860     0.12408200     0.08928725    -2.40346581
Ti      1.20792487     2.10062168    11.83709017    -0.12408200    -0.08928725     2.40346581
Ti      3.18257116     0.32824170     1.75324309     0.12806670    -0.08923017    -2.40261992
Ti      5.59812067     3.21652041    11.83703569    -0.12806670     0.08923017     2.40261992
Ti      1.20791117     0.32824043     8.54832774    -0.12408200    -0.08928725    -2.40346581
Ti      7.57278066     3.21652168     5.04195091     0.12408200     0.08928725     2.40346581
O       2.77914543     1.24817098     6.93501509     1.72352345     0.65673661    -2.02582204
O       6.00154647     2.29659102     6.65526356    -1.72352345    -0.65673661     2.02582204
O       1.61125754     1.24818525     0.13991954    -1.72484114     0.65697906    -2.02841474
O       7.16943441     2.29657674    13.45035874     1.72484114    -0.65697906     2.02841474
O       6.00153277     0.52420996     0.13987546    -1.72352345    -0.65673661    -2.02582204
O       2.77915907     3.02055203    13.45040283     1.72352345     0.65673661     2.02582204
O       7.16942071     0.52419568     6.93505924     1.72484114    -0.65697906    -2.02841474
O       1.61127106     3.02056637     6.65521942    -1.72484114     0.65697906     2.02841474
O       0.31903867     2.15612525     3.67107326    -1.65233240     0.49400835     0.27739437
O       8.46165316     1.38863674     9.91920539     1.65233240    -0.49400835    -0.27739437
O       4.70938220     1.38860379     3.12410922    -1.65204829    -0.49427651    -0.27669014
O       4.07130969     2.15615826    10.46616919     1.65204829     0.49427651     0.27669014
O       0.31902497     0.38374419     3.12406582    -1.65233240     0.49400835    -0.27739437
O       8.46166686     3.16101780    10.46621259     1.65233240    -0.49400835     0.27739437
O       4.07129599     0.38377714     9.91924867     1.65204829     0.49427651    -0.27669014
O       4.70939590     3.16098485     3.67102992    -1.65204829    -0.49427651     0.27669014
