# total energy = -19515.96700749 eV

CRYSTAL
PRIMVEC
        5.17600016     0.00000000     0.00000000
        0.00000000     5.50899976     0.00000000
        0.00000000     0.00000000     9.26300011
PRIMCOORD
23 1
Ti      1.94795803     3.23271001     3.45664401    -0.87714220    -1.68153063     1.99458544
Ti      3.44079001     2.26128298     5.86104498     0.88661851     0.01080481    -1.13344065
Ti      4.24019200     2.26613802     1.53677799     1.50675803    -0.92579726    -2.20722166
Ti      0.76793298     3.60189401     7.84797898    -1.48988439    -3.61335516     0.48215813
Ti      2.05886199     0.07346499     1.44616702    -1.02885225     1.04556186    -1.03772256
Ti      3.07484902     5.18152001     7.93765298     1.85217918     0.34579833     0.81041973
Ti      0.81265898     0.49291802     5.94131403    -1.57795242     1.72561452    -2.64408568
Ti      4.51582101     4.81233701     3.14780098     2.40485627     2.39165365     2.59270113
O       1.79372403     1.92329498     4.98444599     0.12793557     0.75283368    -2.15552910
O       3.53748102     3.59466402     4.31631198     0.91478625     0.15453030     2.14074551
O       4.69579303     2.93588999     9.17403001    -0.21770850     0.08591499     0.77034882
O       3.35120898     0.64395998     0.23807600     0.33652230     1.06219022     1.06479192
O       1.70915901     4.50575299     9.09533601    -0.29102713     1.30823588     3.03940965
O       4.50008402     0.96911198     4.75874099    -1.28431613    -0.55637562     0.31469029
O       0.90411801     4.69483500     4.25574902     1.65462480    -0.26705724     1.38486018
O       0.38527898     3.34601702     2.33889698    -0.39328971     0.03491534    -0.19860597
O       0.02120598     2.19468501     6.74409999    -0.59357358    -0.48415613     0.16664817
O       2.63985501     1.72490399     2.38855598    -0.37477236    -0.76230409    -0.01390942
O       2.56573601     3.56987598     7.22694301     0.67049664    -1.71583816    -2.73983437
O       0.19649801     0.63040002     1.99395798     0.05793340     0.25281024    -0.61427740
O       4.93207300     4.89655298     7.23004002    -1.32471229     2.05582734    -1.08721400
O       2.34531098     1.02460601     7.01094101     0.53114229    -0.64572277     0.20858931
O       3.13587401     4.18043402     2.08281102    -1.49062229    -0.57455461    -1.13810721
