# total energy = -19880.69274514 eV

CRYSTAL
PRIMVEC
        9.41857542     0.00000000     0.00000000
        0.00002965     3.80228757     0.00000000
        0.00000000     0.00000000    14.57760646
PRIMCOORD
24 1
Ti      3.41379829     2.25323204     5.40818805     0.26221251    -0.17644716     2.40296625
Ti      6.00480706     1.54905539     9.16941854    -0.26221251     0.17644716    -2.40296625
Ti      8.12292525     1.54905669     1.88055701     0.25038749     0.17526703    -2.40263329
Ti      1.29568009     2.25323095    12.69704972    -0.25038749    -0.17526703     2.40263329
Ti      3.41378359     0.35208832     1.88061545     0.26251539    -0.17671044    -2.40051727
Ti      6.00482175     3.45019924    12.69699127    -0.26251539     0.17671044     2.40051727
Ti      1.29566540     0.35208696     9.16936010    -0.24983624    -0.17593526    -2.40485704
Ti      8.12293994     3.45020061     5.40824649     0.24983624     0.17593526     2.40485704
O       2.98104916     1.33885006     7.43884097     0.85311780     0.80290388    -2.36673142
O       6.43755625     2.46343737     7.13876561    -0.85311780    -0.80290388     2.36673142
O       1.72831472     1.33886538     0.15008463    -0.85329495     0.80257606    -2.36753669
O       7.69029076     2.46342206    14.42752156     0.85329495    -0.80257606     2.36753669
O       6.43754156     0.56229359     0.15003735    -0.85169366    -0.80274524    -2.36626296
O       2.98106378     3.23999385    14.42756884     0.85169366     0.80274524     2.36626296
O       7.69027606     0.56227827     7.43888833     0.85198369    -0.80205104    -2.36599480
O       1.72832921     3.24000923     7.13871826    -0.85198369     0.80205104     2.36599480
O       0.34221669     2.31276683     3.93777517    -1.87202476     0.56970731     0.04347069
O       9.07638865     1.48952061    10.63983142     1.87202476    -0.56970731    -0.04347069
O       5.05151681     1.48948526     3.35107442    -1.87277835    -0.56978135    -0.04438343
O       4.36708860     2.31280224    11.22653191     1.87277835     0.56978135     0.04438343
O       0.34220200     0.41162304     3.35102786    -1.87217620     0.56988497    -0.04514602
O       9.07640334     3.39066439    11.22657846     1.87217620    -0.56988497     0.04514602
O       4.36707391     0.41165839    10.63987785     1.87242920     0.56947539    -0.04442585
O       5.05153150     3.39062905     3.93772868    -1.87242920    -0.56947539     0.04442585
