# total energy = -39482.88425692 eV

CRYSTAL
PRIMVEC
        7.60629642    -0.00000847    -0.00005503
       -0.00000847     7.60629642    -0.00005503
       -3.80314186    -3.80314186     9.70738094
PRIMCOORD
47 1
Ti      1.90154731     4.66772106     6.11452374    -0.00003085     0.05338743    -0.01463267
Ti      3.83519682     6.65569450     1.16950699     0.01227574    -0.00006222     0.00003754
Ti      1.90147011     1.03688592     6.11462971    -0.00006376    -0.05336558    -0.01482293
Ti      3.78644892     2.85249641     1.23777365     0.01027233    -0.00003240     0.00666019
Ti     -1.90163932     4.76906744     6.06231088    -0.00003008     0.00647970    -0.02757766
Ti     -0.03217013     6.65567269     1.16951794    -0.01237858    -0.00001543    -0.00008767
Ti     -1.90169926     0.93601028     6.06232706    -0.00011801    -0.00652675    -0.02750361
Ti      0.01633207     2.85252338     1.23788066    -0.01016255    -0.00003677     0.00678540
Ti      3.80866563     0.93516894     8.50356683     0.01024945    -0.00331004    -0.00617065
Ti      5.70506569     2.85221799     3.64419105     0.00014167    -0.00016789     0.03078383
Ti      3.80872711    -2.83690841     8.50356361     0.01028030     0.00339334    -0.00612488
Ti      5.70471432    -0.95097184     3.62517966     0.00007353     0.00000463     0.01217032
Ti     -0.00535619     0.93518009     8.50359759    -0.01008978    -0.00322674    -0.00616319
Ti      1.90194568     2.85210709     3.71130342     0.00003060     0.00033733     0.02992817
Ti     -0.00524076    -2.83695271     8.50354867    -0.00996689     0.00334526    -0.00617296
Ti      1.90153023    -0.95092820     3.47172874    -0.00008356     0.00023783     0.00641516
O       1.90168121     2.85229983     5.69827231     0.00025994    -0.00037872    -0.00864020
O       3.80080604     4.74853103     0.78624535    -0.00703917    -0.00131178     0.00722557
O       3.80086894     0.95623835     0.78626503    -0.00706771     0.00124621     0.00736030
O      -1.90154250     2.85239145     5.68382085     0.00006376    -0.00023037    -0.02517574
O       0.00237672     4.74851055     0.78630181     0.00696949    -0.00121305     0.00720989
O      -1.90158416    -0.95076761     5.61331666     0.00003445     0.00011879     0.02011709
O       0.00235984     0.95626670     0.78631597     0.00704971     0.00120096     0.00731248
O       3.78083694     2.85238377     8.87742170    -0.00387208    -0.00006556     0.01824096
O       5.70467777     4.75066963     4.06331143    -0.00001800     0.01007693    -0.02291651
O       3.83785370    -0.95079321     8.93689281     0.01119716     0.00012418     0.00517692
O       5.70466387     0.95406758     4.06335342    -0.00004499    -0.01018646    -0.02285892
O       0.02233352     2.85239327     8.87739579     0.00397930    -0.00008973     0.01820187
O       1.90130999     4.86660093     4.12851007    -0.00037487     0.00432048    -0.00045997
O      -0.03473963    -0.95079949     8.93690601    -0.01102155     0.00009693     0.00529159
O       1.90131529     0.83807944     4.12837374    -0.00040238    -0.00419707     0.00045046
O       1.90158440     0.91691188     8.09246831     0.00001723    -0.02814073     0.02138619
O       3.78374568     2.85240399     3.26738576    -0.00570322    -0.00012213     0.01256293
O       1.90162763    -2.81857980     8.09246951     0.00000334     0.02835105     0.02179242
O       3.82173590    -0.95072295     3.17121059     0.00424901    -0.00011621    -0.00694507
O      -1.90156313     0.98061442     8.05234166     0.00000848     0.00413639    -0.02236449
O       0.01931894     2.85240622     3.26733842     0.00568857    -0.00010747     0.01246574
O      -1.90152794    -2.88210121     8.05231225     0.00002597    -0.00412482    -0.02230433
O      -0.01866227    -0.95071534     3.17126019    -0.00438090    -0.00010722    -0.00694609
O       3.77994426     4.88371068     6.47016824     0.00122436     0.00560295    -0.01343171
O       5.70469378     6.65544415     1.58158832     0.00003034     0.00002211     0.04414869
O       3.77994893     0.82097670     6.47022732     0.00073354    -0.00540626    -0.01358571
O       5.70469616     2.85235705     1.66841360     0.00001286    -0.00003985     0.02756584
O       0.02325739     4.88372813     6.47019202    -0.00123233     0.00565283    -0.01337231
O       1.90154531     6.65550007     1.56475538     0.00000643    -0.00004757     0.01033198
O       0.02318920     0.82095720     6.47024433    -0.00076953    -0.00542220    -0.01350807
O       1.90158978     2.85234264     1.67998622    -0.00002597    -0.00008433    -0.03785617
