# total energy = -19882.87141442 eV

CRYSTAL
PRIMVEC
        9.27494876     0.00000000     0.00000000
        0.00003037     4.23057856     0.00000000
        0.00000000     0.00000000    14.11574709
PRIMCOORD
24 1
Ti      3.36174068     2.50703696     5.23684150     0.29496632    -0.36595528     2.71791930
Ti      5.91323805     1.72354167     8.87890580    -0.29496632     0.36595528    -2.71791930
Ti      7.99905631     1.72354311     1.82097569     0.29476423     0.36610209    -2.71824969
Ti      1.27592242     2.50703565    12.29477174    -0.29476423    -0.36610209     2.71824969
Ti      3.36172569     0.39174774     1.82103232     0.29558416    -0.36614245    -2.71750458
Ti      5.91325303     3.83883095    12.29471511    -0.29558416     0.36614245     2.71750458
Ti      1.27590744     0.39174617     8.87884917    -0.29481874    -0.36615608    -2.71890198
Ti      7.99907129     3.83883253     5.23689812     0.29481874     0.36615608     2.71890198
O       2.93559043     1.48965862     7.20315775     0.83253765     1.10165846    -2.50730551
O       6.33938830     2.74091995     6.91258955    -0.83253765    -1.10165846     2.50730551
O       1.70195935     1.48967568     0.14532951    -0.83226203     1.10188344    -2.50758267
O       7.57301944     2.74090295    13.97041738     0.83226203    -1.10188344     2.50758267
O       6.33937338     0.62563067     0.14528373    -0.83139377    -1.10155433    -2.50598113
O       2.93560535     3.60494796    13.97046316     0.83139377     1.10155433     2.50598113
O       7.57300453     0.62561360     7.20320354     0.83136523    -1.10166746    -2.50703580
O       1.70197413     3.60496503     6.91254376    -0.83136523     1.10166746     2.50703580
O       0.33699867     2.57327768     3.81301548    -2.15844448     0.65671116    -0.02791756
O       8.93798005     1.65730088    10.30273182     2.15844448    -0.65671116     0.02791756
O       4.97448485     1.65726146     3.24490304    -2.15824444    -0.65643399     0.02839476
O       4.30049387     2.57331716    10.87084405     2.15824444     0.65643399    -0.02839476
O       0.33698376     0.45798840     3.24485800    -2.15826964     0.65669547     0.02798158
O       8.93799497     3.77259023    10.87088909     2.15826964    -0.65669547    -0.02798158
O       4.30047896     0.45802782    10.30277679     2.15829535     0.65692044     0.02709532
O       4.97449977     3.77255081     3.81297044    -2.15829535    -0.65692044    -0.02709532
