# total energy = -4957.30917882 eV

CRYSTAL
PRIMVEC
        4.77104923     0.00000000     0.00000000
       -0.00000676     2.56902682     0.00000000
       -2.38555110    -1.28457122     5.14701617
PRIMCOORD
6 1
Ti     -0.00020421     1.92685864     1.28675384    -0.01917195    -0.02173354    33.94841985
Ti      2.38569522    -0.64240288     3.86026192     0.01917195     0.02173354   -33.94841985
O       0.00005064     0.64224664     0.83840682     0.01816896     0.02014074   -24.36545638
O       2.38544026     0.64220901     4.30860904    -0.01816896    -0.02014074    24.36545638
O      -0.00001948    -0.64226406     3.41191490    -0.00178100     0.00003060    -1.02011461
O       2.38551029     1.92671972     1.73510096     0.00178100    -0.00003060     1.02011461
