# total energy = -19947.22859970 eV

CRYSTAL
PRIMVEC
        5.59594976     0.00000000     0.00000000
        2.02260971     5.60182147     0.00000000
        0.00000000     0.00000000    10.17726257
PRIMCOORD
24 1
Ti      3.22685936     3.31963413     3.77569184     0.92684884    -2.75278347     1.01379484
Ti      4.39170031     2.28218719     6.40157084    -0.92684884     2.75278347    -1.01379484
Ti      5.65015915     2.28218910     1.31289887    -2.18042999    -0.58236202     0.66473660
Ti      1.96840055     3.31963239     8.86436393     2.18042999     0.58236202    -0.66473660
Ti      2.21555465     0.51872354     1.31293967     0.92684884    -2.75278347    -1.01379484
Ti      5.40300504     5.08309789     8.86432313    -0.92684884     2.75278347     1.01379484
Ti      0.95709572     0.51872148     6.40153004     2.18042999     0.58236202     0.66473660
Ti      6.66146398     5.08310001     3.77573265    -2.18042999    -0.58236202    -0.66473660
O       2.48334874     1.97249650     5.19337919     1.29664843     1.83208857    -0.92246048
O       5.13521093     3.62932482     4.98388349    -1.29664843    -1.83208857     0.92246048
O       1.73905763     1.97251910     0.10478065     0.10211320    -0.62412653     0.98626962
O       5.87950210     3.62930227    10.07248175    -0.10211320     0.62412653    -0.98626962
O       4.12390619     0.82841412     0.10474762    -1.29664843    -1.83208857    -0.92246048
O       3.49465348     4.77340720    10.07251478     1.29664843     1.83208857     0.92246048
O       4.86819736     0.82839151     5.19341222    -0.10211320     0.62412653     0.98626962
O       2.75036225     4.77342982     4.98385047     0.10211320    -0.62412653    -0.98626962
O       1.43357964     3.40734528     2.74913252     0.40186769     1.39246294     1.28957275
O       6.18498003     2.19447604     7.42813016    -0.40186769    -1.39246294    -1.28957275
O       3.79362486     2.19442386     2.33953117     1.24124268     0.94095829     0.12068634
O       3.82493481     3.40739746     7.83773135    -1.24124268    -0.94095829    -0.12068634
O       0.42227491     0.60643458     2.33949865     0.40186769     1.39246294    -1.28957275
O       7.19628476     4.99538674     7.83776387    -0.40186769    -1.39246294     1.28957275
O       2.81363007     0.60648676     7.42816256    -1.24124268    -0.94095829     0.12068634
O       4.80492960     4.99533456     2.74910006     1.24124268     0.94095829    -0.12068634
