# total energy = -19517.86893115 eV

CRYSTAL
PRIMVEC
        7.60600008     0.00000000     0.00000000
        0.00000000     7.60600008     0.00000000
       -1.89786986    -1.89786986     4.85670466
PRIMCOORD
23 1
Ti      3.80652801     6.74245298     1.19800401    -0.06952908    -0.03357733     0.73573173
Ti      3.89281698     2.91181697     1.18309401    -0.48591631     0.95855518     1.16822255
Ti     -0.06909700     6.58427798     1.31706000     0.54207154     0.03830894    -0.54010618
Ti      0.05874301     2.77339400     1.00788898     0.55252565    -0.02112985     0.53483774
Ti      5.65371524     2.79953620     3.64918584    -0.80743648    -0.93310408    -0.03236609
Ti      5.64035521    -1.23476680     3.64854283    -1.08897444     2.11438501    -0.09327863
Ti      1.98305423     2.90401923     3.60382884     0.32310320     0.06217084     1.51368355
Ti      1.85708824    -0.88373479     3.68661481     0.42919930     0.47387377    -1.52458658
O       4.03935701     4.86691000     0.71794901    -1.00657106    -0.50211761     0.48342234
O       3.90845602     1.14209701     0.98857798     0.16776506    -1.60293095    -0.95174201
O       0.34312599     4.66865401     0.63744400    -0.01145453     1.37829950     1.34781520
O      -0.20436598     0.83158601     0.75480700     0.71448104     0.47928929    -0.33179456
O       5.42249225     4.65257422     3.98389780     0.58639146    -0.38654365     0.72538895
O       5.47922322     0.90947424     4.02711581     0.58393117    -0.34321875    -0.46199707
O       2.03605720     4.95016620     4.10274080    -0.99549038    -1.77275135    -0.12058273
O       1.70965422     0.96241821     4.06806683    -0.00850855     1.69824718     0.41005254
O       3.76939824     2.88846825     3.24605781     1.21418772    -0.10837358    -0.43571627
O       3.73582422    -0.98934079     3.11593879    -0.02981864     0.24659100     0.52712365
O      -0.11513077    -1.14263979     3.29501481     0.59658923    -0.02676956    -0.15118709
O       5.68797402     6.70982201     1.59334201    -0.06169879    -0.52574528     0.51872617
O       5.98201199     2.96858700     1.81661502    -0.45614884    -0.02123166    -1.11614921
O       1.75352899    -0.56891698     1.74714098     0.60599458    -1.03589219    -0.42314434
O       1.93850798     2.85493598     1.75631903    -1.29469285    -0.13633511    -1.78235391
