# total energy = -4989.94340506 eV

CRYSTAL
PRIMVEC
        3.02169863     0.00000000     0.00000000
        0.00000000     4.28363963     0.00000000
        0.00000000    -0.00005859     4.52039501
PRIMCOORD
6 1
Ti      1.51084932     2.14179036     2.26019750     0.00000000     0.00000000     0.00000000
Ti      0.00000000     0.00000000     0.00000000     0.00000000     0.00000000     0.00000000
O       1.51084932     0.83480679     0.88095840     0.00000000     0.19360825     0.08250673
O       1.51084932     3.44877388     3.63943656     0.00000000    -0.19360825    -0.08250673
O       0.00000000     1.30695983     3.14115682     0.00000000    -0.19372292     0.08258695
O       0.00000000     2.97662089     1.37923814     0.00000000     0.19372292    -0.08258695
