# total energy = -19517.29332046 eV

CRYSTAL
PRIMVEC
        7.60600008     0.00000000     0.00000000
        0.00000000     7.60600008     0.00000000
       -1.89786986    -1.89786986     4.85670466
PRIMCOORD
23 1
Ti      3.79260102     6.77419901     1.19724400    -1.38619767     0.22057605     1.25414756
Ti      3.78043502     3.05444099     1.15708601     0.99520858    -1.28186895     1.01421881
Ti     -0.06830800     6.45677400     1.30962500     1.35314896     1.54945713     0.08663335
Ti      0.20445398     2.85599999     1.01129000    -3.63137860    -1.94996213    -0.09296341
Ti      5.57658025     2.82074123     3.60441681     1.43819054    -1.32052267    -1.15331323
Ti      5.56820723    -1.15586377     3.61310680     0.68810742     0.79382248     2.46565234
Ti      2.05017221     2.93806522     3.65045179    -0.63353162    -1.17401859    -0.57456592
Ti      1.91098224    -0.87728179     3.70133382    -0.92724530     0.58311433    -0.26067268
O       3.78616300     4.79870699     0.70973099    -0.50096627     0.38759986     1.58621620
O       3.85615299     1.13698802     0.81854000     0.27922808    -1.57844170    -0.27988448
O       0.38876398     4.71238802     0.73244598    -0.99601231     0.32291859    -0.14924514
O      -0.28585700     0.95197601     0.82688099     0.71462862    -2.00131145     0.18871647
O       5.65182523     4.55036623     4.08043280    -0.14420629     2.53229407     0.62463123
O       5.63398624     0.74383424     4.01696180     0.97896769     1.81225173    -0.92286208
O       1.93867620     4.68321025     4.24026381    -0.01215387     2.97550665    -2.23031506
O       1.74198621     1.11300724     4.02214584    -0.21375183    -1.21711235    -0.26874646
O       3.84576323     2.74001222     3.34419580    -1.25142142     0.11047340    -1.18039004
O       3.72432525    -0.89165377     3.30170980     0.04477861    -0.43260498    -0.35607915
O       0.07570923    -1.19442777     3.27927580    -1.22623334     0.15508874    -0.50564902
O       5.58408901     6.29179299     1.75798900     1.27226665     0.52964025    -1.23681935
O       5.81497698     3.15422598     1.73372601     0.62481532    -0.53926441     0.02249253
O       1.87938798     6.76067499     1.60267500     0.32477236     0.06953371     0.35807330
O       1.87434100     2.95164598     1.53264702     2.20898595    -0.54716952     1.61072422
