# total energy = -19882.34016361 eV

CRYSTAL
PRIMVEC
        7.56953804     0.00000000     0.00000000
        0.00002302     2.68542584     0.00000000
        0.00000000     0.00000000    12.04249657
PRIMCOORD
24 1
Ti      2.74360723     1.59138078     4.46768044    -0.63304543     0.58510282     0.41613783
Ti      4.82595403     1.09404481     7.57481649     0.63304543    -0.58510282    -0.41613783
Ti      6.52824713     1.09404567     1.55351991    -0.63183418    -0.58529283    -0.41550431
Ti      1.04131418     1.59138002    10.48897712     0.63183418     0.58529283     0.41550431
Ti      2.74359578     0.24866791     1.55356821    -0.63304543     0.58510282    -0.41613783
Ti      4.82596554     2.43675778    10.48892883     0.63304543    -0.58510282     0.41613783
Ti      1.04130267     0.24866699     7.57476820     0.63183418     0.58529283    -0.41550431
Ti      6.52825864     2.43675870     4.46772873    -0.63183418    -0.58529283     0.41550431
O       2.39581475     0.94558401     6.14519397     7.36634673    -0.69235694     2.39070619
O       5.17374656     1.73984163     5.89730297    -7.36634673     0.69235694    -2.39070619
O       1.38901487     0.94559491     0.12398427    -7.36622177    -0.69270070     2.39044574
O       6.18054650     1.73983073    11.91851230     7.36622177     0.69270070    -2.39044574
O       5.17373505     0.39712866     0.12394516    -7.36634673     0.69235694     2.39070619
O       2.39582626     2.28829693    11.91855141     7.36634673    -0.69235694    -2.39070619
O       6.18053499     0.39711781     6.14523302     7.36622177     0.69270070     2.39044574
O       1.38902622     2.28830783     5.89726391    -7.36622177    -0.69270070    -2.39044574
O       0.27503295     1.63342822     3.25297882     1.07882809    -0.22676778     4.92780694
O       7.29452836     1.05199736     8.78951807    -1.07882809     0.22676778    -4.92780694
O       4.05981198     1.05197247     2.76830791     1.08005476     0.22701821    -4.92762491
O       3.50974933     1.63345317     9.27418882    -1.08005476    -0.22701821     4.92762491
O       0.27502144     0.29071530     2.76826947     1.07882809    -0.22676778    -4.92780694
O       7.29453987     2.39471034     9.27422726    -1.07882809     0.22676778     4.92780694
O       3.50973787     0.29074019     8.78955645    -1.08005476    -0.22701821    -4.92762491
O       4.05982344     2.39468539     3.25294038     1.08005476     0.22701821     4.92762491
