# total energy = -19926.47237181 eV

CRYSTAL
PRIMVEC
        7.26675664     0.00000000     0.00000000
        0.00002860     5.15601762     0.00000000
        0.00000000     0.00000000    11.28984077
PRIMCOORD
24 1
Ti      2.63386683     3.05545125     4.18845040     0.55221351    -0.42485207     1.24459103
Ti      4.63291853     2.10056637     7.10139049    -0.55221351     0.42485207    -1.24459103
Ti      6.26711989     2.10056817     1.45642491     0.55205822     0.42457516    -1.24422696
Ti      0.99966548     3.05544970     9.83341604    -0.55205822    -0.42457516     1.24422696
Ti      2.63385254     0.47744256     1.45647017     0.55055387    -0.43910807    -1.24513739
Ti      4.63293283     4.67857525     9.83337079    -0.55055387     0.43910807     1.24513739
Ti      0.99965118     0.47744064     7.10134517    -0.55099944    -0.43887205    -1.24517801
Ti      6.26713418     4.67857717     4.18849566     0.55099944     0.43887205     1.24517801
O       2.29998449     1.81552148     5.76111935     0.84694741     1.24894879    -1.28534406
O       4.96680088     3.34049620     5.52872155    -0.84694741    -1.24894879     1.28534406
O       1.33345661     1.81554226     0.11623524    -0.84755547     1.24991347    -1.28677333
O       5.93332888     3.34047543    11.17360528     0.84755547    -1.24991347     1.28677333
O       4.96678664     0.76248733     0.11619859    -0.84677746    -1.24970855    -1.28601666
O       2.29999872     4.39353029    11.17364193     0.84677746     1.24970855     1.28601666
O       5.93331458     0.76246662     5.76115594     0.84700577    -1.24941596    -1.28609225
O       1.33347072     4.39355113     5.52868489    -0.84700577     1.24941596     1.28609225
O       0.26403561     3.13618220     3.04966767    -1.78432157     0.50904648     0.30999468
O       7.00274975     2.01983549     8.24017322     1.78432157    -0.50904648    -0.30999468
O       3.89742206     2.01978741     2.59528869    -1.78314452    -0.50878140    -0.31141084
O       3.36936330     3.13623027     8.69455202     1.78314452     0.50878140     0.31141084
O       0.26402131     0.55817332     2.59525259    -1.78533125     0.50903413    -0.31178905
O       7.00276405     4.59784430     8.69458805     1.78533125    -0.50903413     0.31178905
O       3.36934906     0.55822140     8.24020920     1.78357981     0.50890481    -0.31069248
O       3.89743630     4.59779628     3.04963164    -1.78357981    -0.50890481     0.31069248
