# total energy = -19071.88130431 eV

CRYSTAL
PRIMVEC
        5.93400000     0.00000000     0.00000000
        0.00000000     9.29699974     0.00000000
        0.00000000     0.00000000     4.64899994
PRIMCOORD
22 1
Ti      4.39548398     6.78003801     2.39471899    -0.61562337    -0.03217711     0.59380549
Ti      4.34398001     2.39044800     2.07011198     1.13801105    -2.28675286     1.70608313
Ti      1.55999898     7.04889900     2.69958298     0.57909801    -0.41838035     0.67498194
Ti      1.57407498     2.42160902     2.03489502    -0.45914623     0.65449564     1.04894209
Ti      3.04404202     4.49559998     4.36226800    -1.31027914     2.44322999     2.46326635
Ti      2.88546702     0.13158500     0.18089803     2.32605038     0.27037088    -0.58834807
Ti      5.82049402     4.62102102     4.44910297    -0.13215707     0.81818549     1.83343506
Ti      0.00465401     8.85013099     0.21092100    -0.62591216     0.58711162    -0.12703748
O       4.55341900     5.49819200     0.93802102    -0.34942590     0.48035244     1.46114818
O       4.57309698     0.97050499     0.77430401     0.44245539    -0.41330524     0.55756578
O       1.37530601     1.02347002     0.88614001    -1.16262834    -1.00787744    -0.67957598
O       4.51548800     8.43787799     3.86171501    -0.33856119    -0.08207607    -0.35246109
O       4.41668002     4.24696002     3.32391302     1.67882891    -2.39653334    -2.41529855
O       1.65945302     8.53358102     3.81016399    -2.08885317     0.24634777     0.78026094
O       1.47214100     4.09425603     3.56975998     0.00919067    -1.35030403    -0.95056907
O       2.99036799     6.37334698     3.83667799    -0.24977274    -1.08008664    -1.41264482
O       2.84794502     1.23564602     2.95972598     0.76432215     1.81724096     1.31656060
O       0.19874199     6.43217498     3.80181400    -1.37198744    -1.64419923     0.04442714
O       2.82795302     7.90667098     1.73635200     2.14436280     0.49874972    -2.39873832
O       3.08171102     3.05126000     1.09638800    -1.78544643     2.37536107    -2.01883429
O       0.04030399     7.71269899     1.66998799    -0.33449885     0.41495358    -0.93124183
O       5.81218800     3.23100198     1.34437602     1.74197266     0.10529340    -0.60572770
