# total energy = -4988.47789043 eV

CRYSTAL
PRIMVEC
        3.51418937     0.00000000     0.00000000
        0.00000000     4.06980614     0.00000000
        0.00000000    -0.00006421     4.89821682
PRIMCOORD
6 1
Ti      1.75709474     2.03487080     2.44910841     0.00000000     0.00000000     0.00000000
Ti      0.00000000     0.00000000     0.00000000     0.00000000     0.00000000     0.00000000
O       1.75709474     0.79313270     0.95459030     0.00000000     0.13693392     0.19406154
O       1.75709474     3.27660885     3.94362647     0.00000000    -0.13693392    -0.19406154
O       0.00000000     1.24171216     3.40369980     0.00000000    -0.13710567     0.19422095
O       0.00000000     2.82802945     1.49451703     0.00000000     0.13710567    -0.19422095
