# total energy = -19908.48603573 eV

CRYSTAL
PRIMVEC
        6.56211124     0.00000000     0.00000000
        3.28664950     6.16240108     0.00000000
        0.00000000     0.00000000    12.15365834
PRIMCOORD
24 1
Ti      4.32611519     3.65183318     4.50892058     0.05216179    -2.30159121     0.33705272
Ti      5.52264573     2.51056806     7.64473789    -0.05216179     2.30159121    -0.33705272
Ti      6.99838249     2.51057026     1.56786010    -0.68842418    -1.44949337     0.60476328
Ti      2.85037863     3.65183127    10.58579844     0.68842418     1.44949337    -0.60476328
Ti      2.68279069     0.57063284     1.56790885     0.05216179    -2.30159121    -0.33705272
Ti      7.16597035     5.59176863    10.58574975    -0.05216179     2.30159121     0.33705272
Ti      1.20705382     0.57063047     7.64468914     0.68842418     1.44949337     0.60476328
Ti      8.64170721     5.59177094     4.50896927    -0.68842418    -1.44949337    -0.60476328
O       3.23423486     2.16988623     6.20191885     1.77239731     1.98157540    -0.93892454
O       6.61452613     3.99251506     5.95173962    -1.77239731    -1.98157540     0.93892454
O       2.36144282     2.16991103     0.12512873     0.33586153    -1.30020864     1.85724169
O       7.48731826     3.99249030    12.02852935    -0.33586153     1.30020864    -1.85724169
O       4.97120151     0.91131449     0.12508929    -1.77239731    -1.98157540    -0.93892454
O       4.87755947     5.25108674    12.02856879     1.77239731     1.98157540     0.93892454
O       5.84399363     0.91128973     6.20195823    -0.33586153     1.30020864     1.85724169
O       4.00476730     5.25111158     5.95170018     0.33586153    -1.30020864    -1.85724169
O       2.23754319     3.74832163     3.28300633     0.65426141     3.26079765     3.02552388
O       7.61121781     2.41407966     8.87065208    -0.65426141    -3.26079765    -3.02552388
O       4.80697782     2.41402211     2.79386151     0.54456114     2.15892887     2.04643612
O       5.04178317     3.74837918     9.35979670    -0.54456114    -2.15892887    -2.04643612
O       0.59421857     0.66712105     2.79382271     0.65426141     3.26079765    -3.02552388
O       9.25454241     5.49528017     9.35983550    -0.65426141    -3.26079765     3.02552388
O       3.39845855     0.66717861     8.87069081    -0.54456114    -2.15892887     2.04643612
O       6.45030243     5.49522262     3.28296753     0.54456114     2.15892887    -2.04643612
