# total energy = -19516.33993573 eV

CRYSTAL
PRIMVEC
        5.17600016     0.00000000     0.00000000
        0.00000000     5.50899976     0.00000000
        0.00000000     0.00000000     9.26300011
PRIMCOORD
23 1
Ti      1.81120598     3.27341300     3.46249099     1.52720756    -1.29650316     1.49502068
Ti      3.45178902     2.17588102     5.83312898     0.57089567     0.53327450    -2.44703574
Ti      4.25079502     2.26766501     1.52453500     0.46261079    -1.00994641    -1.88060454
Ti      0.82424601     3.38572600     7.69805301     0.77286490    -1.82664760     2.46952725
Ti      1.90944302     0.17693301     1.36590798    -0.61119413     1.78005534    -1.31529253
Ti      3.16983899     5.01394100     8.05516901     0.85395726     0.01702585     2.00013183
Ti      0.93003701     0.40479498     5.91211201    -1.47215174     1.79069328    -2.38267792
Ti      4.54069202     5.03672399     3.31782801    -0.70176204     0.68733223     2.59274921
O       1.77607898     1.90848400     4.89868202     0.04562784     1.03912278    -0.87356476
O       3.67394498     3.58683299     4.40207600    -1.02827272    -0.83472078     1.36738490
O       0.04048301     2.77198802     9.23492498    -1.35152890    -0.29051471     0.67865964
O       3.29372102     0.77495098     0.16240000     1.25061538     0.32454482     1.06486519
O       1.40773701     4.87824599     9.09453499     1.07000534    -1.30770392    -0.30381092
O       4.30081200     0.86661300     4.76512202    -0.01057881    -0.88320974    -0.42129495
O       1.00593500     4.93342700     4.22871298     1.45157468    -1.02118188     1.44200323
O       0.18197702     3.53162599     2.44300001     0.52507165    -0.54481953    -0.45478564
O       0.03696001     2.03603101     6.70159399    -0.39353602    -0.23667373     0.10780562
O       2.36857202     1.90020301     2.15922501     1.29392177     1.36374448     0.24239984
O       2.70987098     3.34077297     7.20672997    -0.38988634    -0.33851645     0.60767866
O       0.08405801     0.77573702     1.99173702    -0.29318866    -0.08570827     0.14443717
O       0.00218503     4.84086998     7.17727200    -3.09205840     1.30838835    -1.01743475
O       2.48438601     0.64991100     6.99608102    -0.14287214     1.69166001    -2.26533993
O       2.90796700     4.59932899     2.39525901    -0.33732218    -0.85969571    -0.85082155
