# total energy = -19072.77135492 eV

CRYSTAL
PRIMVEC
        5.17600016     0.00000000     0.00000000
        0.00000000     5.50899976     0.00000000
        0.00000000     0.00000000     9.26300011
PRIMCOORD
22 1
Ti      1.82031698     3.43251897     3.21658502     0.63013520     0.05127939     0.68326346
Ti      3.50400601     2.18139600     6.06671300     1.54496772     2.06296190    -2.66976484
Ti      4.30982299     2.24881201     1.19714600     0.21950699    -0.55265574    -0.23585818
Ti      0.91558602     2.96044498     8.00349300    -0.21880019     1.38050859     0.33572835
Ti      1.74274102     0.44833299     1.30613698    -0.51397091     0.57188015    -1.00848139
Ti      3.35579198     5.09438499     8.03903202    -0.15062094    -1.15034721     2.20887334
Ti      1.44089398     0.23059301     5.99577102    -1.56576127     0.46397656    -2.31194530
Ti      4.35257199     4.98058998     3.47422402     0.11613343    -0.50048033     0.94090352
O       3.34591499     3.55053100     4.55386102    -0.40436012    -0.37760135    -0.27248459
O       0.91828700     2.00407299     0.48957198    -0.78921789     0.74327458    -2.47955944
O       4.29287001     3.54811399     8.81312203    -0.12577070    -0.25844481    -0.34974164
O       3.30366701     0.85971099     0.19782498     1.25741544     0.15976198    -0.12107278
O       1.66847999     4.64579302     8.76275499    -0.98439195    -0.14182750     2.74415048
O       2.95128301     0.92324798     4.86731800     0.26979418    -0.36673921     0.14242965
O       0.92952000     4.83127701     4.31089399    -0.62689818     0.31662941     1.06893859
O       5.08231801     3.49684301     2.54664498     0.67636725    -0.91669143    -0.78872450
O       0.18782998     1.87801402     6.26340199    -0.20892406     0.02461524     0.92260523
O       2.58479200     1.87598500     2.29661498     0.16265807     1.22348483     0.77127364
O       2.15679698     4.27875902     6.67025701     1.00670013    -2.99804187    -0.51701818
O       5.07823599     0.67783901     2.13700898     0.44746339    -0.32921060     0.80816744
O       2.46685802     1.26417598     7.27669102    -0.39809279     1.35146180     0.47213108
O       2.77941201     4.75038300     2.32680999    -0.34433255    -0.75779489    -0.34381396
