# total energy = -19070.98960182 eV

CRYSTAL
PRIMVEC
        5.17600016     0.00000000     0.00000000
        0.00000000     5.50899976     0.00000000
        0.00000000     0.00000000     9.26300011
PRIMCOORD
22 1
Ti      1.44062098     3.15225802     3.43571499     0.44912767     0.14263971     0.45542584
Ti      4.53405302     3.02113499     5.64582002    -1.70667114     0.41064981    -0.20485889
Ti      4.06758099     2.04058098     1.65347501     2.92192510    -0.43532701    -0.79869601
Ti      1.30571798     3.09512000     8.15671199    -0.79157019    -2.16040803    -0.55078398
Ti      1.65813802     0.33929200     1.14619702     0.21387524     0.84680317     0.79243486
Ti      3.35592099     5.23661699     7.87915799     0.14135905     0.78004753     0.21016128
Ti      1.31214801     0.43770700     5.96034800     1.58656073    -0.04709954    -1.03264746
Ti      3.98395199     5.06227103     3.62451300    -2.80447449    -0.81944173     1.24180883
O       3.11297799     3.29724000     4.42393298    -0.11579713    -1.47585876     1.78051891
O       0.85274998     2.02946302     0.56328500    -0.34494216    -0.35550065    -1.01350867
O       4.68072301     3.46200902     7.46152199    -0.14398749     0.96004873     0.60386854
O       3.45049100     0.52667302     0.35604702     1.04498953     1.18274595    -0.39954341
O       1.90230299     4.48239500     9.15004399    -0.77008553    -0.86543956     0.13832669
O       3.01125499     0.21537699     5.08500400     0.69928581     1.64089639    -1.20321888
O       0.35121600     4.44289498     4.62590400     0.72801456     0.74119018     1.95774152
O       4.71159701     3.46235002     2.68567599     1.32188304    -1.05470110    -2.30263945
O       0.66695701     1.99271198     4.89910800     0.84587731    -1.59699478    -0.32374675
O       2.63759198     1.42702800     2.40956802    -3.09861215     2.01772409     2.03021271
O       2.14425998     4.35905399     6.73833201    -1.15676108    -2.48669322     1.21055629
O       4.90251998     0.64530901     2.56385499     2.83263400     0.91449468    -1.49568943
O       2.35184298     1.26072903     7.33438398    -0.76376602     1.77056000     0.40436809
O       2.32234098     4.56435201     2.60924798    -1.08886516    -0.11033585    -1.50009090
