# total energy = -19073.08004794 eV

CRYSTAL
PRIMVEC
        5.17600016     0.00000000     0.00000000
        0.00000000     5.50899976     0.00000000
        0.00000000     0.00000000     9.26300011
PRIMCOORD
22 1
Ti      1.64667498     3.34721999     3.30427700     2.37564621     0.29850210    -0.54694275
Ti      3.75008898     2.17512202     6.02806999    -1.09903439     0.29617988    -2.06397260
Ti      4.44617498     2.22969199     1.31856900    -0.37163305    -1.49117328    -0.31207522
Ti      0.97034603     3.14704298     7.99756098    -1.54494535    -0.14923382     0.09886410
Ti      1.78879998     0.57031999     1.25514499     0.19415976     0.66727222    -1.20943966
Ti      3.28954200     5.12458101     7.95907498     1.80673414     1.16478215     1.95109059
Ti      0.94117598     0.08227600     5.96599200    -1.41693368     1.04480492    -0.28803437
Ti      4.18002603     4.88108201     3.49814002     0.78424358     0.82076482     0.09619452
O       3.41887800     3.38268598     4.40428600     0.02584088    -0.25015686     1.02981873
O       0.80059898     2.00289102     0.28602798     1.07328633    -0.63384221    -0.65754574
O       4.46834100     3.71934098     8.59202198    -1.34531892     0.70851556     0.09054066
O       3.54095898     0.85491998     0.23344702    -0.97768214    -0.07984795    -1.30880615
O       1.82820601     4.64052798     8.95214202    -0.88209234     0.60681168     2.83524830
O       4.09851199     0.69287601     4.98546000     0.52458366    -0.59581738    -0.57528352
O       0.94412598     4.84850898     4.22807299    -0.01842787     0.01647718     2.18969933
O       0.13407103     3.67563898     2.35755598    -1.85577744    -1.12145314    -1.05766044
O       5.07331300     1.58700898     7.09394500     0.71391668    -0.60321574    -0.01123418
O       2.64005398     2.12328001     2.08551400    -0.37464869     0.19571784     0.99177384
O       2.02647698     4.28960900     6.83261499     0.49439941    -1.68716186    -3.14357922
O       5.12776698     0.70695101     2.30322599     0.68113433     1.38943880    -0.59595879
O       2.28872002     1.28331098     6.79270699     0.67231879     0.46536085     0.79981650
O       2.63946199     4.83624699     2.28279700     0.54023011    -1.06272578     1.68748659
