# total energy = -19518.12968544 eV

CRYSTAL
PRIMVEC
        7.60600008     0.00000000     0.00000000
        0.00000000     7.60600008     0.00000000
       -1.89786986    -1.89786986     4.85670466
PRIMCOORD
23 1
Ti      3.78194799     6.73733901     1.25458099     0.13003848     0.04325677     0.25348078
Ti      3.72436700     2.94906798     1.16852598     1.00918228    -0.09386844     1.31286670
Ti     -0.07130002     6.56560200     1.21088302     0.13099493    -0.39408701    -0.32082546
Ti      0.00680099     2.78198900     1.18094698    -0.56524516     0.33958398    -0.91863853
Ti      5.71022624     2.77333520     3.54162183    -1.24560430    -0.79380243     0.96280496
Ti      5.74038024    -1.10528379     3.64667283    -1.42447524     1.15358268     0.54786706
Ti      1.96675922     2.93265423     3.64911583     1.52771818     0.07317902     0.53695941
Ti      1.84121022    -0.93583076     3.66124780     1.26692132     0.20791285    -0.16355282
O       4.20294998     4.72694601     0.68381898    -1.54312424     0.87090264     1.45685161
O       3.82229400     1.02186598     0.81172398    -0.72231416     0.08582551     0.31513175
O      -0.20846202     4.72203000     0.74612802     0.82613175     1.38699266     0.67757747
O       0.14935398     0.89808698     0.80055998    -0.20241300    -0.75832813    -0.43820073
O       5.74235021     4.64692425     3.92142483     0.30005325     0.66221666     0.86452605
O       5.53754321     0.90862523     4.15660782     0.95535030    -0.18226403    -1.66243221
O       1.90138625     4.83740821     4.15402083    -0.53992441    -1.23475193    -0.55522942
O       2.01323522     0.95961823     4.11628181    -1.19817925     0.24507070    -1.12851082
O       3.85556322     2.95062525     3.33398083    -1.14794579    -0.24871730    -2.05650405
O       3.76079525    -1.01476876     3.24650883     0.14345270    -0.21474916    -0.32475256
O      -0.04381477    -1.15438779     3.29654979     0.56872077     0.75731820    -1.22989408
O       5.64398700     6.91312598     1.61411301     1.51323773    -0.72153795     0.69498255
O       5.79515299     2.78003999     1.63006098    -0.36146690    -0.36534721     0.74991805
O       1.88571398     6.68444002     1.60055702    -0.60418633    -0.46797103     0.46405215
O       1.79550698     3.12540799     1.68072500     1.18307710    -0.35041604    -0.03847863
