# total energy = -19074.03151522 eV

CRYSTAL
PRIMVEC
        5.17600016     0.00000000     0.00000000
        0.00000000     5.50899976     0.00000000
        0.00000000     0.00000000     9.26300011
PRIMCOORD
22 1
Ti      1.83520401     3.35578901     3.24188599    -1.11880696     1.03931819     1.90287133
Ti      3.70564302     2.40648101     5.93400302     1.02232576    -1.06468804    -0.64533273
Ti      4.29112901     2.37831201     1.19912099     0.20157636    -1.03723534    -1.53783599
Ti      0.84638499     3.16227000     8.15714401    -0.32411878     0.72989326     0.72585997
Ti      1.76168901     0.57319802     1.31559201     0.38496191    -0.11159080    -2.89078132
Ti      3.19069698     4.94079400     7.83046998     0.60696878     1.82241865     2.87019886
Ti      0.75953398     0.10297599     6.05650401    -1.19420561     2.06493496    -0.62702133
Ti      4.45327199     5.03686300     3.41798300    -0.58256951     0.96523902     1.06508811
O       3.48309303     3.50860302     4.40418699    -0.56586351    -0.36136406     1.21299678
O       0.82141502     1.99922101     0.37585698     0.59282745     0.05932180    -0.96633097
O       4.37987198     3.61877598     8.99303901    -1.23841446     0.23135669     0.55275859
O       3.35870499     0.78343702     0.17247702    -0.19337454     1.02532393     0.04212420
O       1.55887701     4.78354099     8.91274298    -0.14140456    -0.00230217     0.46283294
O       4.25603001     0.82989302     4.90239499     0.58809147    -0.55325275    -0.51074649
O       0.95806499     4.85213601     4.36827401     0.07633531    -0.87600551     0.85255061
O       0.02677399     3.54929501     2.41093901     0.34960717    -0.52725992     0.40547366
O       0.27647998     2.02665198     6.78057401    -1.13515352    -0.96416584    -0.98920505
O       2.60794302     2.04331302     2.34784002     0.81621757    -1.64698219    -1.02426952
O       2.63970800     3.31556900     7.21335898    -1.14359034    -1.17798606    -1.17615209
O       5.03053198     0.74848598     2.09029501     0.74691012    -0.80774347     1.27279090
O       2.45722202     0.66974202     6.58909498     0.47275560    -0.04041519    -0.07015720
O       2.50522602     4.72033801     2.38970202     1.77892457     1.23318484    -0.92771273
