# total energy = -4990.12029873 eV

CRYSTAL
PRIMVEC
        4.07317152     0.00000000     0.00000000
       -0.00000822     3.68525083     0.00000000
       -2.03661450    -1.84266241     4.96314423
PRIMCOORD
6 1
Ti     -0.00017805     2.76407660     1.24078581    -0.00071991    -0.00146039     2.15407746
Ti      2.03672652    -0.92148806     3.72235782     0.00071991     0.00146039    -2.15407746
O       0.00004138     0.92130577     0.80845555    -0.00000437     0.00051448    -0.33483078
O       2.03650693     0.92128266     4.15468819     0.00000437    -0.00051448     0.33483078
O      -0.00002088    -0.92129288     3.29002756    -0.00135446    -0.00019592    -0.53951689
O       2.03656920     2.76388126     1.67311618     0.00135446     0.00019592     0.53951689
