# total energy = -19072.77529636 eV

CRYSTAL
PRIMVEC
        7.60600008     0.00000000     0.00000000
        0.00000000     7.60600008     0.00000000
       -1.89786986    -1.89786986     4.85670466
PRIMCOORD
22 1
Ti      3.83857298     6.75757300     1.24947999     1.13231477    -0.28228358    -0.60946223
Ti      3.58359199     2.72894401     1.28886501     0.68896000    -0.77451992    -0.26253416
Ti      0.08701902     6.82066898     0.88612498    -1.31354624    -1.84238687     3.54352654
Ti     -0.20142402     2.85482601     1.17571199     0.68222139     1.08503422    -0.12054827
Ti      5.66323122     2.78349424     3.58525181     0.05830930     0.12148056     2.54720982
Ti     -1.29446079    -0.88622976     3.75644684     0.40250686     0.72148164    -3.97152153
Ti      1.86823425     2.82986721     3.88041783    -0.08270239    -0.79807586    -0.72130989
Ti      1.72485420    -0.98979779     3.56109079     0.16312319    -0.17005026     0.40073409
O       3.79002298     4.49424597     0.86336300     0.10261148     2.14442116    -0.15458558
O       4.08723300     0.84721802     0.64186798    -0.99779074     0.48566923     2.53359942
O      -0.16926301     4.93863299     0.72479000    -0.07800704    -1.11424839     0.55377315
O       7.06871499     0.92428501     0.21306502    -1.05355542    -0.37416764     5.19082832
O      -1.42809980     4.86398921     4.04482579     1.25234933    -0.91554061    -3.51497161
O       5.24261823     0.99330020     4.19803779     1.72478406     1.57466294    -2.14367040
O       2.02364022     4.71204422     4.23495383    -0.80184715    -0.54930688    -1.24457560
O       2.11961921     0.70897522     4.12338781    -0.60244620     1.95277106    -1.24687905
O       3.67124120     3.09847425     3.27166682     0.62416689    -1.02089957    -0.77270857
O       0.03476123     2.78628724     3.29986482    -0.14628760    -0.40050269    -0.04622742
O       5.67526302     6.64063197     2.00366901     0.16522866     0.37134225     0.00721092
O       5.66682402     2.71385399     1.77615698    -0.70413131     0.05999594    -1.14959490
O       1.96322299     6.65073497     1.55108901    -0.47941476     0.53459117     1.06801788
O       1.78406299     2.79052600     1.42317199    -0.73684733    -0.80946791     0.11368882
