# total energy = -19938.99407001 eV

CRYSTAL
PRIMVEC
        4.69721332     0.00000000     0.00000000
        0.74571917     4.94332450     0.00000000
        0.00000000     0.00000000     8.43085392
PRIMCOORD
24 1
Ti      2.14442638     2.92940947     3.12778670     1.99939726     0.10619688    -0.20311054
Ti      3.29850605     2.01391489     5.30306741    -1.99939726    -0.10619688     0.20311054
Ti      4.35484999     2.01391656     1.08760664    -2.96809956    -0.71186725     2.23600389
Ti      1.08808246     2.92940799     7.34324756     2.96809956     0.71186725    -2.23600389
Ti      1.77156689     0.45774731     1.08764045     1.99946282     0.10703866     0.20303289
Ti      3.67136555     4.48557719     7.34321375    -1.99946282    -0.10703866    -0.20303289
Ti      0.71522295     0.45774550     5.30303360     2.96802294     0.71182277     2.23614761
Ti      4.72770949     4.48557901     3.12782051    -2.96802294    -0.71182277    -2.23614761
O       1.74927805     1.74062853     4.30220026    -2.45550265    -1.78948564    -0.62681307
O       3.69365438     3.20269583     4.12865380     2.45550265     1.78948564     0.62681307
O       1.12451985     1.74064851     0.08680036     2.19629139    -1.81672288    -0.41978623
O       4.31841263     3.20267589     8.34405351    -2.19629139     1.81672288     0.41978623
O       3.32079489     0.73103352     0.08677302     2.45541497     1.78941185    -0.62687966
O       2.12213754     4.21229084     8.34408085    -2.45541497    -1.78941185     0.62687966
O       3.94555314     0.73101359     4.30222765    -2.19644899     1.81658893    -0.42003922
O       1.49737925     4.21231083     4.12862645     2.19644899    -1.81658893     0.42003922
O       0.62424929     3.00681018     2.27738402    -1.17614284    -1.25488161    -2.19213880
O       4.81868314     1.93651414     6.15347009     1.17614284     1.25488161     2.19213880
O       2.81140010     1.93646816     1.93806986     0.23374396    -2.22004530    -1.44803838
O       2.63153232     3.00685615     6.49278411    -0.23374396     2.22004530     1.44803838
O       0.25138979     0.53514787     1.93804289    -1.17620480    -1.25498523     2.19190637
O       5.19154263     4.40817644     6.49281102     1.17620480     1.25498523    -2.19190637
O       2.25867283     0.53519385     6.15349696    -0.23374807     2.22000931    -1.44792911
O       3.18425960     4.40813047     2.27735710     0.23374807    -2.22000931     1.44792911
