# total energy = -4943.38896111 eV

CRYSTAL
PRIMVEC
        5.00589394     0.00000000     0.00000000
       -0.00000692     2.41024508     0.00000000
       -2.50297501    -1.20518988     5.39295902
PRIMCOORD
6 1
Ti     -0.00021386     1.80776373     1.34823947    -0.02673537    -0.02393132    46.16119139
Ti      2.50312581    -0.60270868     4.04471888     0.02673537     0.02393132   -46.16119139
O       0.00005327     0.60254971     0.87846883     0.02463940     0.02298413   -37.42175371
O       2.50285853     0.60250523     4.51448957    -0.02463940    -0.02298413    37.42175371
O      -0.00002045    -0.60257711     3.57494824    -0.00131898     0.00092945    -1.00206469
O       2.50293220     1.80763206     1.81801017     0.00131898    -0.00092945     1.00206469
