# total energy = -19518.21780533 eV

CRYSTAL
PRIMVEC
        5.93400000     0.00000000     0.00000000
        0.00000000     9.29699974     0.00000000
        0.00000000     0.00000000     4.64899994
PRIMCOORD
23 1
Ti      4.54573402     7.01439098     2.32130999     0.38190923     0.17088843    -0.09075689
Ti      4.42412099     2.29418801     2.35695500     1.09684664    -0.03626337    -0.08064165
Ti      1.50206100     7.09913602     2.28853301    -0.78189436     0.03602760    -0.36887836
Ti      1.47337202     2.31463902     2.29075101    -1.26537095     0.02384982     0.21786868
Ti      2.94057400     4.46611999     0.06949801     0.02561231     1.09358108    -0.26363742
Ti      2.98323299     0.05020998     4.62386000     0.40859678    -0.75225673    -0.07116790
Ti      5.92322098     4.62858000     0.00565802     0.03670123     0.41658957     0.15566493
Ti      0.01715201     0.05809001     0.04239699    -0.82456800    -0.25717469    -0.57720208
O       4.50903002     5.53726201     0.92772101    -0.74671523    -0.00713790    -0.48702471
O       4.39367298     0.88707898     0.98386598    -0.11744187     0.09962951    -0.71359452
O       1.51125498     5.53344801     0.86662898     0.23440293     0.46383207    -0.07230305
O       1.47381198     0.84341900     0.91439500     0.24348844     0.67484567     0.32095838
O       4.41019199     8.41885698     3.73603499    -0.11416037    -0.39466294     0.12230331
O       4.43781599     3.64947900     3.73606198    -0.19813674     0.88810590    -0.21621983
O       1.30352698     8.32740499     3.75034601     1.59384312     0.10935317     0.01556521
O       1.50595098     3.71894500     3.62890999     0.22813767     0.73629917     0.46468593
O       2.90974398     1.39939400     3.18197498     0.12200249    -0.35266652     0.58469479
O       0.01410099     6.15053298     3.18779699     0.25390142    -1.31944538     0.71271109
O       5.92638800     1.42155499     3.24047801    -0.08227225     0.07008984    -0.00778170
O       3.05816401     7.92798899     1.48024302    -1.17835938    -0.60052405    -0.00626218
O       2.90647302     3.27219298     1.35130200     0.46134427    -1.37194141     1.11587050
O       5.92661401     7.89313600     1.45862698     0.24321848     0.64017176    -1.00658006
O       5.91955500     3.22779998     1.33597703    -0.02108640    -0.33119086     0.25172755
