# total energy = -19070.52121723 eV

CRYSTAL
PRIMVEC
        7.60600008     0.00000000     0.00000000
        0.00000000     7.60600008     0.00000000
       -1.89786986    -1.89786986     4.85670466
PRIMCOORD
22 1
Ti      3.99239602     6.61698601     1.21763997    -1.28699933    -1.40547221     0.19928499
Ti      3.95620098     2.54496998     0.96351900    -0.61265657     3.92416822     2.77626717
Ti     -0.20889600     6.69297099     1.02508899     0.48973388    -3.68339075     4.76344860
Ti     -0.04800902     3.05609202     1.17304102     1.50090774    -0.83403918    -0.49488098
Ti      5.80675224     2.74905523     3.65404882    -0.93985168    -0.69938686    -1.10569870
Ti     -1.19031977    -0.51326579     4.09950483    -2.07843274     0.71503357    -3.12942734
Ti      1.80075922     2.85013523     3.72428683     1.94510557     1.08297219     0.34074457
Ti      1.27021421    -0.81397780     3.79645581     4.10266790    -2.00695451    -1.12301071
O       3.57144499     4.62289002     0.65210899     0.88190979     1.61708899     1.07998277
O       4.15896001     0.80935200     0.83216102    -0.27480141     0.03842592     0.46837367
O       0.38041399     4.71366001     0.97237500     1.40449339     0.52665623    -0.07570667
O       7.24566901     0.69792097     0.54719902     0.03181664     2.93924997     0.28970147
O       4.98532823     4.09797821     4.37810982    -1.76613744     1.52656813    -2.82357188
O       5.17667624     0.99091123     4.04362683     1.94165438     0.80362867    -0.50783291
O       2.18514622     4.85646325     4.18408683    -1.41312767    -1.11761654    -0.20607914
O       1.92047521     0.96231020     3.94023380     0.49173909    -0.70205283    -1.19124370
O       3.47919823     2.81492123     2.79965881    -0.22642171    -0.26307640    -0.55202248
O       0.03945524     3.16308621     3.15141780    -0.25295319    -0.88614595     0.16667234
O       5.75203399     6.57709202     2.13416301    -0.16096269    -0.02800729     0.04225378
O       5.81450300     2.95919099     1.37117700    -2.33909822    -0.37794871     1.86655705
O       2.18824202     6.69880898     2.10986102    -0.19568133     0.19277085    -0.56788542
O       1.91076703     2.35006299     0.44533901    -1.24290413    -1.36247229    -0.21592672
