# total energy = -19929.14928555 eV

CRYSTAL
PRIMVEC
        6.08150944     0.00000000     0.00000000
        0.00002295     3.88353891     0.00000000
        0.00000000     0.00000000     9.28816166
PRIMCOORD
24 1
Ti      2.20426809     2.30138155     3.44584175    -0.55171163     2.68929700    -3.54449636
Ti      3.87726390     1.58215732     5.84232001     0.55171163    -2.68929700     3.54449636
Ti      5.24491818     1.58215862     1.19820203    -0.54880423    -2.68930137     3.54675199
Ti      0.83661386     2.30138039     8.08995978     0.54880423     2.68930137    -3.54675199
Ti      2.20425682     0.35961214     1.19823928    -0.55171163     2.68929700     3.54449636
Ti      3.87727517     3.52392682     8.08992257     0.55171163    -2.68929700    -3.54449636
Ti      0.83660254     0.35961073     5.84228276     0.54880423     2.68930137     3.54675199
Ti      5.24492946     3.52392823     3.44587895    -0.54880423    -2.68930137    -3.54675199
O       1.92484410     1.36746003     4.73967782     2.78007857    -2.54294795     3.86866760
O       4.15668794     2.51607878     4.54848394    -2.78007857     2.54294795    -3.86866760
O       1.11596212     1.36747571     0.09562683    -2.77865135    -2.54409878     3.86924610
O       4.96556997     2.51606315     9.19253463     2.77865135     2.54409878    -3.86924610
O       4.15667666     0.57430928     0.09559669    -2.78007857     2.54294795     3.86866760
O       1.92485538     3.30922954     9.19256477     2.78007857    -2.54294795    -3.86866760
O       4.96555864     0.57429364     4.73970791     2.77865135     2.54409878     3.86924610
O       1.11597330     3.30924522     4.54845380    -2.77865135    -2.54409878    -3.86924610
O       0.22096918     2.36218852     2.50896418     2.38904423    -0.40011085     2.29314128
O       5.86056286     1.52135030     6.77919752    -2.38904423     0.40011085    -2.29314128
O       3.26173090     1.52131419     2.13514619     2.39039123     0.40032631    -2.29346832
O       2.81980109     2.36222467     7.15301537    -2.39039123    -0.40032631     2.29346832
O       0.22095785     0.42041901     2.13511655     2.38904423    -0.40011085    -2.29314128
O       5.86057414     3.46311980     7.15304501    -2.38904423     0.40011085     2.29314128
O       2.81978982     0.42045516     6.77922712    -2.39039123    -0.40032631    -2.29346832
O       3.26174217     3.46308365     2.50893454     2.39039123     0.40032631     2.29346832
