# total energy = -19074.39001816 eV

CRYSTAL
PRIMVEC
        5.17600016     0.00000000     0.00000000
        0.00000000     5.50899976     0.00000000
        0.00000000     0.00000000     9.26300011
PRIMCOORD
22 1
Ti      1.90215001     3.19245099     3.35631602    -1.27901117     1.40024001    -0.78826581
Ti      3.33363099     2.23017598     5.92604599    -0.28764099     0.75044153    -0.65621339
Ti      4.48749103     2.25408802     1.27872301     0.60086806    -0.29908986    -2.21564151
Ti      0.66047798     3.35600000     8.05298499     0.77232471    -0.91488678     1.10078557
Ti      1.87664001     0.57208299     1.28149600     0.61885499    -0.89062455    -1.43269198
Ti      3.32212302     5.00324400     8.04841602    -0.32327006     0.61576401     1.28873431
Ti      0.72692798     0.52473999     5.87140098    -0.21076909     0.03538996    -1.48210423
Ti      4.46860400     4.91281100     3.50323002    -0.45033531     0.63505552    -0.16309310
O       3.26397798     3.57116998     4.42204101     2.46923697    -0.11734031     2.57059838
O       0.86268603     1.89358898     9.25252901    -0.54622541     0.53853395     0.66163662
O       4.26685100     3.74913202     9.14704599     0.22220562    -0.27266791     0.13866016
O       3.43544300     0.85204099     0.26207599     0.80593830     0.08230259    -2.37667799
O       1.79580200     4.65513200     8.92296398    -1.99880873     0.80862073     1.80569413
O       4.27579600     0.89953502     4.65088397     0.92198997    -0.83109218     0.07579178
O       0.97413298     4.57825598     4.44364202    -1.26064294     1.92778404     1.90714219
O       0.10522901     3.34541000     2.62628198    -0.26456584    -0.79338359    -1.21700796
O       5.00716700     2.31978998     6.65102502     0.99459692    -1.19940361    -0.23275794
O       2.77633500     2.06301201     2.18562698    -0.43672363    -0.19438961     0.26371378
O       2.34278098     3.16358998     7.21197899     1.24256345     0.56461806    -1.56067023
O       0.12540702     0.63604502     1.96096700    -0.20079757    -0.71995903     1.89872182
O       2.53793801     0.63106202     6.60319300    -0.99614395    -0.88976966     0.12224674
O       2.78639101     4.82522899     2.37714200    -0.39364427    -0.23614306     0.29139814
