# total energy = -19517.61055337 eV

CRYSTAL
PRIMVEC
        7.60600008     0.00000000     0.00000000
        0.00000000     7.60600008     0.00000000
       -1.89786986    -1.89786986     4.85670466
PRIMCOORD
23 1
Ti      3.74326598     6.72892001     1.25558902     2.37581076    -0.91431908    -0.92238669
Ti      3.77989802     2.92572201     1.18573900     0.42303533    -0.01119433     0.09284617
Ti      0.07093499     6.52936801     1.18887797    -2.18928436    -0.33372443     0.76745504
Ti      0.05489600     2.83695501     1.05437398     0.10464959     0.72852672     1.68737166
Ti      5.63432121     2.87236723     3.54011680    -0.43604897     1.11418668     0.97842647
Ti      5.59511420    -0.86883776     3.72175683     1.48033016    -1.98699477    -1.52039491
Ti      1.99675521     2.89382923     3.71833681     0.17371999     0.06339880     0.05933363
Ti      1.83412724    -0.87846175     3.59600284    -1.07460428    -1.02166473     0.53572245
O       3.79675300     4.75084000     0.92817901    -0.31867447    -0.50859782    -0.58486268
O       4.00689601     0.95008499     0.61609001    -0.70448433    -0.08969605     1.63044356
O      -0.01461498     4.69778501     0.78944699     0.57857247     0.28297289    -0.20523016
O       0.03530898     0.89886497     0.82976898    -0.08114096     1.25423267    -0.21008235
O       5.53483721     4.76746220     4.19732383     0.45467379    -0.62113787    -1.96649150
O      -1.51034178     1.09918222     4.06573983    -0.23881443    -1.94135459    -1.49444244
O       1.83598222     4.68837825     4.04403779    -0.19097879     0.44418086     0.36500088
O       1.71020525     0.99646320     4.04682883    -0.39938786    -0.31048833     0.23161920
O       3.80705121     2.62391021     3.48837379     0.96796285     0.17007082    -1.68599561
O       3.74333224    -0.92389977     3.32294780     0.47737536     0.89502603    -1.04213072
O      -0.02307980    -1.19379678     3.24198881     0.17135483     1.08581403    -0.11401330
O       5.66692499     6.35426300     1.60917499    -0.75002090     1.57076309     1.19883617
O       5.76670300     3.03010402     1.51327501    -0.02120235    -0.95311729     1.31962279
O       1.90375903     6.36600899     1.49195398     0.43670486     1.31870027     1.21367633
O       1.96114602     2.88013900     1.76591301    -1.23954832    -0.23558359    -0.33432350
