# total energy = -19902.88110079 eV

CRYSTAL
PRIMVEC
        6.71097406     0.00000000     0.00000000
        0.71250606     7.10687865     0.00000000
        0.00000000     0.00000000    12.02624477
PRIMCOORD
24 1
Ti      2.85463582     4.21152974     4.46165114    -0.12624687    -1.29968413     0.63482489
Ti      4.56884451     2.89534896     7.56459404     0.12624687     1.29968413    -0.63482489
Ti      6.07805768     2.89535137     1.55142341     0.21892154     0.43503030    -0.53560084
Ti      1.34542267     4.21152767    10.47482197    -0.21892154    -0.43503030     0.53560084
Ti      2.49838293     0.65809048     1.55147166    -0.12624687    -1.29968413    -0.63482489
Ti      4.92509741     6.44878849    10.47477373     0.12624687     1.29968413     0.63482489
Ti      0.98916968     0.65808787     7.56454586    -0.21892154    -0.43503030    -0.53560084
Ti      6.43431059     6.44879104     4.46169938     0.21892154     0.43503030     0.53560084
O       2.37495124     2.50245280     6.13690081     1.57537206     1.60822948    -0.27295638
O       5.04852910     4.60442597     5.88934437    -1.57537206    -1.60822948     0.27295638
O       1.48234902     2.50248154     0.12381694    -1.17591504     0.90713464     0.30830392
O       5.94113139     4.60439729    11.90242797     1.17591504    -0.90713464    -0.30830392
O       4.69227619     1.05098643     0.12377794    -1.57537206    -1.60822948    -0.27295638
O       2.73120414     6.05589234    11.90246696     1.57537206     1.60822948     0.27295638
O       5.58487849     1.05095776     6.13693987     1.17591504    -0.90713464     0.30830392
O       1.83860178     6.05592102     5.88930538    -1.17591504     0.90713464    -0.30830392
O       0.67721176     4.32280662     3.24858882     0.48720829     0.43135259     0.86204956
O       6.74626851     2.78407216     8.77765636    -0.48720829    -0.43135259    -0.86204956
O       3.87843853     2.78400597     2.76457201     0.51038036     0.91117693     0.18744172
O       3.54504180     4.32287274     9.26167303    -0.51038036    -0.91117693    -0.18744172
O       0.32095886     0.76936709     2.76453356     0.48720829     0.43135259    -0.86204956
O       7.10252141     6.33751162     9.26171141    -0.48720829    -0.43135259     0.86204956
O       3.18878890     0.76943327     8.77769473    -0.51038036    -0.91117693     0.18744172
O       4.23469144     6.33744550     3.24855044     0.51038036     0.91117693    -0.18744172
