# total energy = -4989.16220221 eV

CRYSTAL
PRIMVEC
        3.12390240     0.00000000     0.00000000
        0.73009671     4.83992944     0.00000000
       -0.00000459    -0.00006354     4.90858888
PRIMCOORD
6 1
Ti      1.92699698     2.41993286     2.45429438     0.00000000     0.00000000     0.00000000
Ti      0.00000000     0.00000000     0.00000000     0.00000000     0.00000000     0.00000000
O       1.70423526     0.94321852     0.95661164     0.04341052    -0.26557037    -0.34631821
O       2.14975870     3.89664720     3.95197707    -0.04341052     0.26557037     0.34631821
O       0.22275972     1.47668860     3.41090707    -0.04344575     0.26522173    -0.34622822
O       0.50733195     3.36317723     1.49768164     0.04344575    -0.26522173     0.34622822
