# total energy = -19073.85749195 eV

CRYSTAL
PRIMVEC
        5.93400000     0.00000000     0.00000000
        0.00000000     9.29699974     0.00000000
        0.00000000     0.00000000     4.64899994
PRIMCOORD
22 1
Ti      4.40789801     6.87741498     2.39767799    -1.22145289     0.24785881    -0.53061701
Ti      4.40039300     2.46268001     2.06475300     0.35881815     0.11096628     0.36684693
Ti      1.53198502     7.17740302     2.56633800     1.03750864     0.08998993     0.73288063
Ti      1.59433797     2.23254098     2.17754401    -0.31875418     0.97277184     0.68151460
Ti      3.01119001     4.51546402     4.45186798    -0.31396627     0.11026000    -0.21954067
Ti      3.00995401     0.13196199     0.00117499     0.63949427    -0.53174753    -0.99015174
Ti      5.84193401     4.67908801     4.44681402     0.37138956    -0.53103687     0.63287805
Ti      5.88161299     9.11383700     0.36666999    -0.03077175     0.35315478    -0.70455992
O       4.29513499     5.47010402     0.84486799     0.69878650     0.15311156     1.47600325
O       4.42615700     0.72131997     1.19581702     0.41536110     0.87508068    -0.85319339
O       1.64477598     0.55552800     1.19900399    -1.89561747     2.11825786     0.14750013
O       4.45068802     8.33590601     3.92891502     0.05218056     1.18488048    -0.23479220
O       4.49344702     3.94325202     3.39524399    -0.23681566    -0.95561486    -0.35318923
O       1.38424302     8.45536301     3.81231197     0.47477751     1.11842952     0.09670180
O       1.50052702     3.85771999     3.40411502    -0.69840418    -0.03230309     0.60523714
O       2.94381601     6.18266097     3.48633498    -0.49040957    -0.03325209    -1.44579509
O       3.08768999     1.62026300     3.27923802    -0.36145379    -0.89901766     0.97599729
O       5.82457001     6.32892303     3.49224202     1.54156769    -1.69155408     0.02202819
O       2.99919298     7.96211002     1.59913899    -0.08094710    -1.71465956     0.11193096
O       2.89425199     3.01104401     1.00355798     0.03352745     0.27268770     0.22760082
O       0.08235501     7.74320802     1.46720198    -0.65406420    -1.31697352     0.22492764
O       5.92156402     3.21072602     1.29089901     0.67924508     0.09870983    -0.97020768
