# total energy = -19903.67290670 eV

CRYSTAL
PRIMVEC
        7.61870762     0.00000000     0.00000000
        0.00003219     5.99331963     0.00000000
        0.00000000     0.00000000    12.13015619
PRIMCOORD
24 1
Ti      2.76143417     3.55163571     4.50020143     0.50354020    -0.85727965     1.26991306
Ti      4.85730570     2.44168412     7.62995483    -0.50354020     0.85727965    -1.26991306
Ti      6.57065640     2.44168621     1.56482823     0.50436038     0.85748019    -1.27048796
Ti      1.04808348     3.55163390    10.56532816    -0.50436038    -0.85748019     1.27048796
Ti      2.76141821     0.55497603     1.56487687     0.50354020    -0.85727965    -1.26991306
Ti      4.85732166     5.43834401    10.56527953    -0.50354020     0.85727965     1.26991306
Ti      1.04806752     0.55497374     7.62990620    -0.50436038    -0.85748019    -1.27048796
Ti      6.57067236     5.43834629     4.50025007     0.50436038     0.85748019     1.27048796
O       2.41138044     2.11034976     6.18992586     0.76688631     1.48837772    -1.29771647
O       5.20735950     3.88297007     5.94023040    -0.76688631    -1.48837772     1.29771647
O       1.39804065     2.11037394     0.12488678    -0.76645411     1.48889168    -1.29890612
O       6.22069936     3.88294596    12.00526914     0.76645411    -1.48889168     1.29890612
O       5.20734354     0.88631019     0.12484743    -0.76688631    -1.48837772    -1.29771647
O       2.41139640     5.10700965    12.00530850     0.76688631     1.48837772     1.29771647
O       6.22068340     0.88628608     6.18996521     0.76645411    -1.48889168    -1.29890612
O       1.39805648     5.10703382     5.94019105    -0.76645411     1.48889168     1.29890612
O       0.27682486     3.64547673     3.27665781    -1.40458415     0.30754570    -0.00316323
O       7.34191508     2.34784310     8.85349845     1.40458415    -0.30754570     0.00316323
O       4.08618688     2.34778720     2.78845889    -1.40454764    -0.30728782     0.00330361
O       3.53255306     3.64553270     9.34169716     1.40454764     0.30728782    -0.00330361
O       0.27680890     0.64881692     2.78842015    -1.40458415     0.30754570     0.00316323
O       7.34193104     5.34450298     9.34173591     1.40458415    -0.30754570    -0.00316323
O       3.53253710     0.64887282     8.85353713     1.40454764     0.30728782     0.00330361
O       4.08620284     5.34444701     3.27661907    -1.40454764    -0.30728782    -0.00330361
