# total energy = -19960.92590193 eV

CRYSTAL
PRIMVEC
        5.35302218     0.00000000     0.00000000
        0.00002664     5.15464048     0.00000000
        0.00000000     0.00000000     9.14737536
PRIMCOORD
24 1
Ti      1.94022889     3.05463513     3.39361110    -0.17366548     0.52836755    -0.82694627
Ti      3.41281993     2.10000525     5.75376458     0.17366548    -0.52836755     0.82694627
Ti      4.61664669     2.10000702     1.18004020    -0.16719479    -0.52810684     0.82736202
Ti      0.73640218     3.05463362     7.96733563     0.16719479     0.52810684    -0.82736202
Ti      1.94021562     0.47731499     1.18007690    -0.17405269     0.52093603     0.82704500
Ti      3.41283325     4.67732554     7.96729894     0.17405269    -0.52093603    -0.82704500
Ti      0.73638886     0.47731311     5.75372793     0.16745370     0.52057968     0.82732423
Ti      4.61665996     4.67732747     3.39364779    -0.16745370    -0.52057968    -0.82732423
O       1.69427472     1.81503648     4.66783575     0.13518248    -0.42081261     0.38796393
O       3.65877416     3.33960390     4.47953993    -0.13518248     0.42081261    -0.38796393
O       0.98228651     1.81505732     0.09417736    -0.13541517    -0.42102421     0.38799221
O       4.37076242     3.33958311     9.05319811     0.13541517     0.42102421    -0.38799221
O       3.65876084     0.76228361     0.09414770    -0.13510972     0.42071748     0.38799632
O       1.69428804     4.39235677     9.05322777     0.13510972    -0.42071748    -0.38799632
O       4.37074910     0.76226281     4.66786546     0.13549410     0.42089720     0.38781377
O       0.98229967     4.39237762     4.47951027    -0.13549410    -0.42089720    -0.38781377
O       0.19450397     3.13534456     2.47093435     0.31905911    -0.13284766     0.20705050
O       5.15854491     2.01929587     6.67644132    -0.31905911     0.13284766    -0.20705050
O       2.87101980     2.01924789     2.10278257     0.31878169     0.13268363    -0.20700525
O       2.48202902     3.13539254     7.04459300    -0.31878169    -0.13268363     0.20700525
O       0.19449065     0.55802427     2.10275333     0.31892258    -0.13304358    -0.20710398
O       5.15855817     4.59661616     7.04462219    -0.31892258     0.13304358     0.20710398
O       2.48201575     0.55807224     6.67647051    -0.31862356    -0.13291014    -0.20686667
O       2.87103313     4.59656813     2.47090516     0.31862356     0.13291014     0.20686667
