# total energy = -19959.36752704 eV

CRYSTAL
PRIMVEC
        5.93400000     0.00000000     0.00000000
        0.00000000     9.29699974     0.00000000
        0.00000000     0.00000000     4.64899994
PRIMCOORD
24 1
Ti      4.51812499     6.72237398     2.22114599    -1.27863322     1.03969125     1.33031395
Ti      4.48771302     2.58347699     2.30147600    -0.14558928    -2.82014383     0.08002022
Ti      1.54877899     6.82819001     2.04889398     0.48660408     1.73639671     2.38880409
Ti      1.45517499     2.33207499     2.39025099     0.68835116    -1.63476585     0.49970283
Ti      2.89253598     4.59653001     0.06734902     1.12323620    -0.82698253    -2.18396860
Ti      2.93471802     0.01225500     0.14892000     1.72610123     1.05107739    -0.65979725
Ti      0.01126401     4.68153598     4.56380003    -0.47766872    -1.67822573    -0.85780158
Ti      5.92753102     9.22600802     0.16005299    -1.46232472     0.61957207    -0.40484348
O       4.47753001     5.52848698     0.79302900    -0.23553319     0.54525945     0.22724755
O       4.33479503     0.88727001     1.10187700     1.01583758     0.87732114     0.24468607
O       1.48660400     5.62845798     0.72788299    -0.43797756    -0.17549945    -0.44186712
O       1.45721301     0.91966402     1.06510601    -0.54055459     0.38356785     0.36564751
O       4.38215602     8.47152398     3.92580499     1.16529740    -0.41729534    -0.76808984
O       4.45643298     3.87193501     3.65207202    -0.61313763     0.31457125     0.43878489
O       1.47631002     8.45011199     4.05118602    -1.21238075    -1.04258812    -1.90939885
O       1.50352899     3.80529201     3.65104399     0.38278495     0.98595621     1.13247443
O       2.91712901     6.08296599     3.14195198     0.18103890    -0.43083503     0.21700299
O       2.98500002     1.59783499     3.31697799    -0.31111054     0.16802423    -0.35338463
O       0.03627103     5.82653802     2.99260398     0.22304200     0.97897360     0.61282241
O       5.89743200     1.71718499     3.30888798    -0.08428516    -1.03353372    -0.00387285
O       3.01852498     7.68337098     1.35846103    -0.12404523     1.11737742     0.09119064
O       2.94104502     3.25223897     1.26242499     0.17893316     0.27440289     0.66248637
O       5.86806102     7.86902600     1.55377098     0.56357574     0.13893038    -0.09922508
O       0.10167897     3.40121200     1.39743398    -0.81156207    -0.17125225    -0.60893464
