# total energy = -4988.41385970 eV

CRYSTAL
PRIMVEC
        3.95746710     0.00000000     0.00000000
        1.34394710     3.72227780     0.00000000
       -2.65074320    -1.86116425     5.13217717
PRIMCOORD
6 1
Ti      1.00784623     2.79185112     1.28304435     0.00017869    -0.00017869    -0.00000000
Ti      1.64282408    -0.93073806     3.84913293    -0.00017869     0.00017869     0.00000000
O       0.33602800     0.93056432     0.83598978    -0.00048851    -0.00065357    -1.42673884
O       2.31464212     0.93054861     4.29618761     0.00048851     0.00065357     1.42673884
O      -0.33599591    -0.93054184     3.40207836    -0.00065357    -0.00048851    -1.42673884
O       2.98666596     2.79165473     1.73009902     0.00065357     0.00048851     1.42673884
