# total energy = -19074.22065756 eV

CRYSTAL
PRIMVEC
        5.17600016     0.00000000     0.00000000
        0.00000000     5.50899976     0.00000000
        0.00000000     0.00000000     9.26300011
PRIMCOORD
22 1
Ti      1.83556898     3.36928298     3.31446900     0.84099453     0.09904716    -0.45689163
Ti      3.54145001     2.30323001     6.11484802     0.72362517     0.09132768    -1.44693281
Ti      4.42986299     2.21926800     1.15408102    -0.61633094     1.22899188    -1.12216148
Ti      0.68119998     3.25777099     8.05934999    -0.44166169     1.36678969     1.64651811
Ti      1.83885602     0.54253400     1.29643801     0.27330657    -0.10925984    -1.85074193
Ti      3.19280501     5.01191902     7.95008198     0.72736535     0.11140671     1.99132836
Ti      0.65609999     0.18530798     6.01021798    -0.16129925     1.12351876    -1.51279652
Ti      4.42192501     5.03973702     3.34455299     0.29314495    -0.43562963     0.87531131
O       3.45826699     3.42283302     4.42428599    -0.91118953    -0.47160606     1.90296029
O       0.90417400     2.11098198     0.22899802     0.12335643    -0.96316543     0.02038988
O       4.23083498     3.78301799     9.10406601     0.82939114    -0.63117649     0.02634790
O       3.42464699     0.84496399     0.18497798     0.88350696     0.61962735    -1.40839607
O       1.66638302     4.87675699     9.05268501    -1.76988225    -0.16996541    -0.12708633
O       4.55890498     0.88431699     4.75220602    -1.05462217    -0.36340911     0.16673430
O       1.01293299     4.76532199     4.24668601    -0.30444418    -0.05985402     2.37492759
O       0.06880998     3.50957602     2.45243699     0.29099731    -0.93244176    -0.14571630
O       0.19537102     2.07661901     6.71700897    -0.81956643    -0.81445302    -0.39342855
O       2.73537499     1.98077300     2.16180898    -0.55119973     0.31340474     1.50390873
O       2.48098700     3.27822798     7.51079401     0.55109817    -0.64250863    -2.86590588
O       0.04723500     0.69484201     2.04821801     0.32532412    -0.53139451     0.86401774
O       2.43369199     0.67400301     6.46168799     0.23936696    -0.12052410     0.38285283
O       2.70168000     4.62944002     2.33165699     0.52871799     1.29127431    -0.42523954
