# total energy = -4988.55973687 eV

CRYSTAL
PRIMVEC
        4.14162851     0.00000000     0.00000000
       -0.00000772     3.38860495     0.00000000
       -2.07084189    -1.69434120     4.85366274
PRIMCOORD
6 1
Ti     -0.00017976     2.54158001     1.21341582    -0.00179232    -0.00465910     5.55334578
Ti      2.07095866    -0.84731646     3.64024708     0.00179232     0.00465910    -5.55334578
O       0.00004272     0.84714410     0.79062206     0.00113591     0.00390705    -1.05925222
O       2.07073608     0.84711933     4.06304089    -0.00113591    -0.00390705     1.05925222
O      -0.00002003    -0.84713640     3.21745332    -0.00155038    -0.00039184    -0.30665173
O       2.07079873     2.54139984     1.63620957     0.00155038     0.00039184     0.30665173
