# total energy = -4983.44157299 eV

CRYSTAL
PRIMVEC
        2.77500335     0.00000000     0.00000000
        1.27570066     4.15665922     0.00000000
       -0.00000850    -0.00005698     4.39888404
PRIMCOORD
6 1
Ti      2.02534781     2.07830116     2.19944202     0.00000000     0.00000000     0.00000000
Ti      0.00000000     0.00000000     0.00000000     0.00000000     0.00000000     0.00000000
O       1.63611530     0.81006064     0.85727769    -5.97637365     2.68063855     3.21972966
O       2.41458037     3.34654167     3.54160630     5.97637365    -2.68063855    -3.21972966
O       0.38922903     1.26821745     3.05672069     5.97521871    -2.67976386     3.21862332
O       0.88646331     2.88838466     1.34216335    -5.97521871     2.67976386    -3.21862332
