# total energy = -4988.64541086 eV

CRYSTAL
PRIMVEC
        4.10740007     0.00000000     0.00000000
       -0.00000914     4.10740007     0.00000000
       -2.05373225    -2.05373682     5.24195599
PRIMCOORD
6 1
Ti     -0.00018088     3.08070562     1.31048885    -0.00028128     0.00028128     0.00000000
Ti      2.05383944    -1.02704249     3.93146679     0.00028128    -0.00028128     0.00000000
O       0.00004103     1.02684304     0.85387174    -0.00023731    -0.00165245    -0.88621537
O       2.05361742     1.02681998     4.38808396     0.00023731     0.00165245     0.88621537
O      -0.00002320    -1.02682521     3.47484967    -0.00165245    -0.00023731    -0.88621537
O       2.05368159     3.08048817     1.76710603     0.00165245     0.00023731     0.88621537
