# total energy = -19961.87568754 eV

CRYSTAL
PRIMVEC
        5.25338879     0.00000000     0.00000000
        0.00002879     5.59119432     0.00000000
        0.00000000     0.00000000     9.40241079
PRIMCOORD
24 1
Ti      1.90411783     3.31333658     3.48822741     0.00566234    -0.12651092     0.11692919
Ti      3.34929976     2.27785779     5.91418365    -0.00566234     0.12651092    -0.11692919
Ti      4.53072025     2.27785971     1.21294055     0.01070711     0.12652275    -0.11754162
Ti      0.72269733     3.31333488     8.18947061    -0.01070711    -0.12652275     0.11754162
Ti      1.90410354     0.51773953     1.21297825     0.00566234    -0.12651092    -0.11692919
Ti      3.34931405     5.07345501     8.18943291    -0.00566234     0.12651092     0.11692919
Ti      0.72268304     0.51773745     5.91414594    -0.01070711    -0.12652275    -0.11754162
Ti      4.53073454     5.07345709     3.48826511     0.01070711     0.12652275     0.11754162
O       1.66274086     1.96875462     4.79797835     0.23816857     0.20735158     0.01619796
O       3.59067673     3.62243981     4.60443270    -0.23816857    -0.20735158    -0.01619796
O       0.96400453     1.96877714     0.09680309    -0.23958397     0.20740480     0.01626738
O       4.28941311     3.62241729     9.30560769     0.23958397    -0.20740480    -0.01626738
O       3.59066244     0.82684259     0.09677258    -0.23816857    -0.20735158     0.01619796
O       1.66275515     4.76435178     9.30563820     0.23816857     0.20735158    -0.01619796
O       4.28939882     0.82682007     4.79800886     0.23958397    -0.20740480     0.01626738
O       0.96401871     4.76437436     4.60440219    -0.23958397     0.20740480    -0.01626738
O       0.19088526     3.40088135     2.53982578     0.07852718    -0.04456752     0.05866668
O       5.06253233     2.19031303     6.86258527    -0.07852718     0.04456752    -0.05866668
O       2.81758387     2.19026092     2.16140964     0.07900052     0.04532111    -0.05789921
O       2.43583372     3.40093346     7.24100126    -0.07900052    -0.04532111     0.05789921
O       0.19087097     0.60528413     2.16137961     0.07852718    -0.04456752    -0.05866668
O       5.06254662     4.98591024     7.24103128    -0.07852718     0.04456752     0.05866668
O       2.43581943     0.60533624     6.86261524    -0.07900052    -0.04532111    -0.05789921
O       2.81759815     4.98585814     2.53979576     0.07900052     0.04532111     0.05789921
