# total energy = -4987.13740903 eV

CRYSTAL
PRIMVEC
        3.95669829     0.00000000     0.00000000
        1.69471164     3.57539002     0.00000000
       -2.82574243    -1.78771871     5.18916972
PRIMCOORD
6 1
Ti      1.27093378     2.68168013     1.29729238     0.00057850    -0.00057850     0.00000000
Ti      1.55473400    -0.89400860     3.89187702    -0.00057850     0.00057850     0.00000000
O       0.42371901     0.89384281     0.84527328    -0.00038309    -0.00050831    -2.12869089
O       2.40194863     0.89382858     4.34389617     0.00038309     0.00050831     2.12869089
O      -0.42368336    -0.89382030     3.43985798    -0.00050831    -0.00038309    -2.12869089
O       3.24935093     2.68149165     1.74931147     0.00050831     0.00038309     2.12869089
