# total energy = -19939.12004817 eV

CRYSTAL
PRIMVEC
        6.37264553     0.00000000     0.00000000
        0.00002405     4.06945301     0.00000000
        0.00000000     0.00000000     9.73280770
PRIMCOORD
24 1
Ti      2.30979157     2.41155407     3.61080225    -0.07986981     1.73614140    -1.61835063
Ti      4.06287760     1.65789889     6.12200555     0.07986981    -1.73614140     1.61835063
Ti      5.49600469     1.65790026     1.25556276    -0.07917689    -1.73679394     1.62051242
Ti      0.87666452     2.41155286     8.47724509     0.07917689     1.73679394    -1.62051242
Ti      2.30977975     0.37682762     1.25560180    -0.07986981     1.73614140     1.61835063
Ti      4.06288941     3.69262545     8.47720610     0.07986981    -1.73614140    -1.61835063
Ti      0.87665266     0.37682614     6.12196651     0.07917689     1.73679394     1.62051242
Ti      5.49601650     3.69262692     3.61084124    -0.07917689    -1.73679394    -1.62051242
O       2.01699090     1.43292354     4.96657729     2.13725704    -1.22123229     1.96333881
O       4.35567832     2.63652936     4.76623051    -2.13725704     1.22123229    -1.96333881
O       1.16938584     1.43293998     0.10020471    -2.13694362    -1.22144595     1.96298374
O       5.20328343     2.63651298     9.63260277     2.13694362     1.22144595    -1.96298374
O       4.35566650     0.60180281     0.10017313    -2.13725704     1.22123229     1.96333881
O       2.01700271     3.46765010     9.63263436     2.13725704    -1.22123229    -1.96333881
O       5.20327156     0.60178643     4.96660882     2.13694362     1.22144595     1.96298374
O       1.16939755     3.46766653     4.76619892    -2.13694362    -1.22144595    -1.96298374
O       0.23154749     2.47527201     2.62907417     0.59722995     0.05654758     1.74658034
O       6.14112172     1.59418090     7.10373358    -0.59722995    -0.05654758    -1.74658034
O       3.41787759     1.59414306     2.23736064     0.59836638    -0.05625447    -1.74720434
O       2.95479157     2.47530989     7.49544695    -0.59836638     0.05625447     1.74720434
O       0.23153562     0.44054545     2.23732957     0.59722995     0.05654758    -1.74658034
O       6.14113354     3.62890745     7.49547802    -0.59722995    -0.05654758     1.74658034
O       2.95477975     0.44058334     7.10376459    -0.59836638     0.05625447    -1.74720434
O       3.41788941     3.62886957     2.62904311     0.59836638    -0.05625447     1.74720434
