# total energy = -19072.99872668 eV

CRYSTAL
PRIMVEC
        5.93400000     0.00000000     0.00000000
        0.00000000     9.29699974     0.00000000
        0.00000000     0.00000000     4.64899994
PRIMCOORD
22 1
Ti      4.50936801     7.01562100     2.36991301    -2.98719412    -0.68944954     0.84238473
Ti      4.41992001     2.35360599     2.07566199     0.53192673    -1.39764577     0.48254456
Ti      1.49949301     7.26321203     2.65496497     2.37068526    -1.88795558    -1.34594652
Ti      1.52787400     2.57153801     2.21022801    -0.15786194    -0.61996314    -0.30725851
Ti      2.99674199     4.63308298     4.54830799    -0.03937569     0.54437447    -0.45784242
Ti      2.98464801     0.21385799     4.57886898     0.37277667    -0.07049608     1.54534850
Ti      5.70843100     4.47398600     4.45418302     2.16721143     0.58127419     0.34402530
Ti      0.00146302     8.99327899     0.27859902    -0.01471160     1.21410879     0.58495293
O       4.50478300     5.38345098     0.86859598    -0.80107068     0.45155145     1.14624449
O       4.50435601     0.64724199     1.12179402     0.66926637     0.90673380    -0.55433982
O       1.43072002     0.95150901     1.04976198    -0.00369828    -1.28483832    -1.21562008
O       4.52672597     8.20913499     3.90376200    -0.55490957     2.13869325    -0.16428764
O       4.39982303     3.78897198     3.47309999    -1.12972258    -0.80651294    -0.76352331
O       1.67884398     8.19285898     4.11170602    -0.75658750     1.59538656     0.66265426
O       1.50544699     3.84043399     3.71515201    -0.45093489    -0.27660992    -1.08678848
O       2.95671401     6.03934300     3.07979000    -0.82229695    -0.60152446     0.62750856
O       2.96630900     1.44271298     3.16734497     0.03697968     0.09022879     0.60982270
O       5.80635298     6.29261797     3.54645602     1.69592239    -1.94351457    -0.83747135
O       2.94862400     8.18014698     1.65433800    -0.48187376    -2.10894738     0.75109150
O       3.04138401     3.04301700     1.15812002    -0.56178214     1.79585143    -1.08340954
O       0.05207099     7.54102199     1.42375801     1.31808681     0.84114828    -0.98903716
O       5.91756699     2.86495002     0.97894801    -0.40083565     1.52810642     1.20894678
