# total energy = -19072.78674447 eV

CRYSTAL
PRIMVEC
        5.17600016     0.00000000     0.00000000
        0.00000000     5.50899976     0.00000000
        0.00000000     0.00000000     9.26300011
PRIMCOORD
22 1
Ti      2.09999298     3.40747799     3.24474000     0.28824520     2.09346728     1.15908176
Ti      3.48105897     2.13166699     5.79437500     0.61776947    -0.35070966    -1.45970811
Ti      4.53045001     2.38051301     1.30120701     1.02431965    -1.44535955    -1.02003259
Ti      0.46338702     2.92160501     8.00204200     0.20438735    -0.27271650     0.00587574
Ti      1.96605203     0.61475299     1.49857102    -1.35337341    -2.30347275    -2.39966881
Ti      2.91144798     5.10225899     8.00822602     0.77470195     2.15836914     2.90269890
Ti      0.69807602     0.16448602     5.97161202    -0.19946034     0.02018805    -1.04996282
Ti      4.66821400     4.82410401     3.39733498    -1.22119501     1.58982732     0.83064275
O       3.74339299     3.50795002     4.52059900    -0.70640468    -0.55479027     0.26454347
O       0.99888900     2.00718799     0.26874103    -0.92985780     0.20277707    -0.53135440
O       4.22286102     3.41744298     9.03417598    -1.12332747     1.71959480    -0.58288961
O       3.37940900     0.98625399     9.21974002     0.86144535    -0.88157247     0.44999079
O       1.65670998     4.93724401     0.15698599    -0.60784424    -1.57031315    -1.54217139
O       4.16303002     0.75308701     4.74043802     0.41443344    -0.17020632     0.61126432
O       1.25990901     5.12233100     4.20979801     0.28989610    -1.44191041     1.23044944
O       0.44627401     3.64885298     2.30729102    -0.18777930    -1.84054776    -0.10779508
O       4.85979998     1.45566602     6.97645098     0.38567976     0.95563209     0.93854248
O       2.75748000     2.17250402     2.05013601     1.23001981     0.53273226     1.44787846
O       1.52272399     4.19905000     6.98294298    -0.19091914    -1.40903576    -0.36133269
O       0.10582598     0.69976299     2.28968598     0.61409742     2.36992165    -1.75144949
O       2.20602999     1.05979900     6.75278601    -0.03267848     0.07385265     0.29053348
O       3.11202701     4.70799098     2.24532601    -0.15215588     0.52427230     0.67486392
