# total energy = -4989.30816781 eV

CRYSTAL
PRIMVEC
        2.96670177     0.00000000     0.00000000
        0.92047060     4.55632990     0.00000000
       -0.00000613    -0.00006086     4.67202810
PRIMCOORD
6 1
Ti      1.94358307     2.27813452     2.33601416     0.00000000     0.00000000     0.00000000
Ti      0.00000000     0.00000000     0.00000000     0.00000000     0.00000000     0.00000000
O       1.66273580     0.88794977     0.91050952    -1.21604277     0.51574369     0.48125464
O       2.22443033     3.66831927     3.76151879     1.21604277    -0.51574369    -0.48125464
O       0.28084475     1.39016010     3.24652452     1.21564528    -0.51524746     0.48051673
O       0.63961971     3.16610883     1.42550379    -1.21564528     0.51524746    -0.48051673
