# total energy = -19518.39066627 eV

CRYSTAL
PRIMVEC
        5.93400000     0.00000000     0.00000000
        0.00000000     9.29699974     0.00000000
        0.00000000     0.00000000     4.64899994
PRIMCOORD
23 1
Ti      4.53582798     7.14261301     2.18964100     0.42565811    -0.68220777     0.64527566
Ti      4.50382001     2.30817200     2.32351798    -0.22489628    -0.80176874    -0.16724724
Ti      1.37729799     7.05519398     2.17232299    -0.93119040    -0.22833539     0.72353441
Ti      1.48580499     2.29752998     2.41031199     0.15073766    -0.53918856    -0.07877837
Ti      2.98405602     4.47597999     0.18245799    -0.13041643     0.55689961     0.53646062
Ti      2.96037999     9.29017198     4.62354498     0.06755525     0.50048933    -0.22055728
Ti      5.91448098     4.58332100     0.06703702     0.11597325     1.05103985    -0.28996886
Ti      0.02704699     0.02762099     4.57136800    -0.19634057     0.62619601    -0.14767985
O       4.42570900     5.55097003     1.03300702    -0.24778887    -0.11295760    -0.77750703
O       4.44006500     0.96126402     0.87115202    -0.41047497    -0.37164719     0.14359539
O       1.45353100     5.63040101     0.93233501     0.57624562    -0.81486645    -0.40899402
O       1.44663201     0.92383399     0.84595900     0.66091260     0.00533247     0.45954604
O       4.45106098     8.44937199     3.60037299    -0.55496871    -0.22060819     0.68484392
O       4.44595903     3.64672400     3.92357398    -0.19445338     0.34725846    -1.06008191
O       1.42666102     8.38158099     3.68036200     0.73469069    -0.12783427     0.07821299
O       1.50454702     3.68783001     3.87706702     0.08467520     0.28015547    -0.86085219
O       2.97188500     1.37089399     3.20841601     0.05992190     0.06070840     0.06321111
O       5.88075498     6.13787998     3.21076301    -0.04417054    -0.43078849     0.14433330
O       5.92602102     1.41693998     3.23144300     0.16031631     0.13197246    -0.12506493
O       2.90893301     7.78824000     1.44186502     0.56427816     0.51788130    -0.41956948
O       3.00588500     3.29440800     1.50747401    -0.55377443    -0.54586109     0.86407225
O       5.92176500     7.93796901     1.31325601     0.10334347    -0.11965122     0.08608648
O       0.05897702     3.15510299     1.42572501    -0.21583391     0.91778107     0.12712901
