# total energy = -19958.50188845 eV

CRYSTAL
PRIMVEC
        7.60600008     0.00000000     0.00000000
        0.00000000     7.60600008     0.00000000
       -1.89786986    -1.89786986     4.85670466
PRIMCOORD
24 1
Ti      3.65664200     6.72703101     1.33084501    -1.12105179     0.25846333    -0.51145303
Ti      3.84630600     2.94278300     1.39627302    -1.83367777    -0.41717398    -2.54520127
Ti     -0.01348402     6.55555700     1.09959302     1.88344124     0.35914802     1.16850074
Ti      0.05691000     2.76943898     1.07959901     0.90244392    -0.72873215     0.49049339
Ti      5.72267921     2.75103223     3.55609081     0.62027270    -0.56600209     0.85174483
Ti      5.77519724    -1.08324478     3.59506381     0.68139350     0.78885022    -0.20229421
Ti      1.73110024     3.10545822     3.58006481     0.91154331    -1.42948684     1.69129646
Ti      1.79591424    -0.83380978     3.75495879     1.21319630     1.47797040     0.04298758
O       3.39618402     4.81581302     0.80394201     1.57677125    -0.36096399    -0.08846398
O       3.53228100     1.07473799     0.97554302     1.21202491    -0.16654713    -0.44734383
O       0.26365600     4.55689400     0.68960501    -0.94336998     2.36167637    -0.24714815
O       0.30876598     0.93723699     0.76233100    -1.21392187    -1.56070442    -1.58429070
O      -1.38086179     4.65042825     4.06243279    -2.26778094    -0.18186474    -0.51005821
O       5.74174022     0.84339725     3.98232080    -0.10541193    -0.01096165    -1.14605629
O       1.84430924     4.93997822     4.24290980     0.45146686    -2.49643565    -0.83394662
O       1.95129322     0.96533620     4.01226684    -0.22073237     1.03966220     1.21037606
O       3.68609621     2.87287821     3.33123281     3.01212149     0.76763810     0.14904562
O       3.71664022    -0.96427478     3.19571380     2.49746152    -0.74320978     1.17718542
O       0.05216920     2.65095222     2.95519982    -0.94104647     0.31119873     2.64962383
O       0.15133824    -1.19984877     3.09237283    -4.31297547     0.49285186     0.26089431
O       5.79208699     6.78657800     1.57193198    -0.57008577    -0.72684419     0.52104068
O       5.79654198     2.68818699     1.65279899    -1.83102954     0.67667578    -0.57574632
O       1.80033599     6.73464698     1.72328699     1.40874317    -0.07458362    -1.00482760
O       1.97790200     2.79754199     1.71749398    -1.00979574     0.92937520    -0.51635844
