# total energy = -19960.92921627 eV

CRYSTAL
PRIMVEC
        7.60600008     0.00000000     0.00000000
        0.00000000     7.60600008     0.00000000
       -1.89786986    -1.89786986     4.85670466
PRIMCOORD
24 1
Ti      3.85059398     6.61121898     1.09099701    -0.36300211     0.22516213     1.70976675
Ti      3.81328598     2.70456301     1.21014503    -0.47261342    -0.15735209     0.59411968
Ti     -0.03880499     6.67305699     1.20895501     0.22313764     1.44347184     0.01267143
Ti     -0.05475799     2.95031298     1.30367102     0.72695706    -1.54220687    -1.39532278
Ti      5.63152022     2.96320622     3.65847279     0.19272225    -1.45484255    -0.09363884
Ti      5.68952525    -0.88975879     3.66353882    -0.73075021     1.28267499     0.48693318
Ti      1.87022723     2.76334624     3.74281280     0.58006089    -0.00810978    -1.61995552
Ti      1.93825424    -0.98315677     3.62910779     0.91944766     0.17024360    -0.99433801
O       3.93322601     4.69930301     0.76085602    -0.36825384    -0.28862726     0.43185010
O       4.06779801     0.83685000     0.74114899    -0.85452496     1.74587457    -0.26315585
O      -0.14698999     4.81220699     0.80495602     0.51487877     0.03271113     0.35934677
O      -0.18139900     1.05358799     0.76964598     0.72159425    -0.88128682    -0.33441708
O       5.51806721     4.85148523     4.03269583     0.69760431    -0.45271770     0.18843982
O       5.55991921     1.08846723     4.03890181     0.79644629    -0.76871771     0.72167422
O       2.09697725     4.77922221     3.99506281    -0.75218679    -1.23052863    -0.16276297
O       2.04364222     0.92631821     4.07238682    -0.71852873    -0.31294297     0.39268370
O       3.84720624     2.85152823     3.20658384    -1.64960009     0.29125185    -0.78321822
O       3.77423524    -0.83692679     3.20135684     0.01233050    -0.32885090    -0.81376962
O       0.03186822     2.85248425     3.29894183     0.13143818     0.69425648     0.02240666
O       0.01128322    -0.88772278     3.14618683     0.89333347    -0.15019233     0.80735086
O       5.73285502     6.71380200     1.70653398    -0.61221306    -0.49369853    -0.63244508
O       5.73826898     2.68198402     1.67335599    -0.70539347     1.02463795     0.26413518
O       1.96320600     6.67310801     1.42315898    -0.36990552    -0.17506751     0.62694857
O       1.86162001     2.47800800     1.55491898     1.18702143     1.33485709     0.47469678
