# total energy = -19960.35748824 eV

CRYSTAL
PRIMVEC
        7.60600008     0.00000000     0.00000000
        0.00000000     7.60600008     0.00000000
       -1.89786986    -1.89786986     4.85670466
PRIMCOORD
24 1
Ti      3.86671298     6.48981598     1.23147198     0.63015216     0.69110122     0.26049450
Ti      3.83122101     2.75214001     1.30910101     0.67235967    -0.27764736    -1.47498407
Ti      0.05095199     6.77515598     1.20340098    -0.38886741     1.08631103    -1.06363055
Ti      0.00061602     3.00594099     1.27415198    -0.84844636    -1.97638665    -1.24430255
Ti      5.67579320     2.92642121     3.68407381    -1.56268366    -0.49667278    -0.70979906
Ti      5.78852224    -0.84379778     3.60523581    -2.38929312     0.35042606     0.07569125
Ti      1.73608525     2.77439123     3.61277580     2.09912036    -0.35590946     1.45352280
Ti      1.82837122    -1.03694579     3.56073883     3.09931432     0.03556017     1.91551370
O       4.00329601     4.65394299     0.90400598    -0.56779338    -1.57542862    -0.75142832
O       3.88857901     0.71682700     0.66966201    -0.17116354     3.38415897     0.09762302
O      -0.02879502     4.78582200     0.78991299     0.42262344     0.46241873     0.45525306
O       0.01996702     1.03808997     0.71684599     0.40476944     0.09990308     0.57998504
O       5.69803823     4.92052820     4.07201984     0.30318640    -1.81296599    -0.24345168
O       5.46045823     1.02608220     3.98505882     0.93400011     0.28481740     1.04850449
O       1.83345725     4.64137122     4.12437283    -0.38229824    -0.58574688    -2.11673525
O       1.84828220     0.91457223     4.03500283    -0.11919407    -0.04748726     0.52475541
O       3.77136821     2.88697623     3.14951583     0.31761389     0.23152793     1.02422992
O       3.75226824    -0.92664879     3.19356682     0.71580053    -0.27577303     0.06076907
O      -0.08615376     2.82041224     3.23471183     0.44396000     0.44916829     0.35813783
O       0.01757821    -0.72707277     3.21341880    -0.10293210    -0.37705448    -0.94829853
O       5.75122398     6.65345399     1.51575198     1.81945417     0.08307546     1.24511579
O       5.73976502     2.69793602     1.73646398    -0.11741898     0.43615593    -0.77900469
O       2.06776503     6.61415602     1.44557403    -4.42166813    -0.30446192     1.20618310
O       1.88003701     2.70666501     1.72082901    -0.79059575     0.49090991    -0.97414430
