# total energy = -19517.34983935 eV

CRYSTAL
PRIMVEC
        5.17600016     0.00000000     0.00000000
        0.00000000     5.50899976     0.00000000
        0.00000000     0.00000000     9.26300011
PRIMCOORD
23 1
Ti      1.83683700     3.28775698     3.46333699     0.11303628    -0.66110003     2.72173842
Ti      3.32349798     2.22178900     5.88588297     0.95496669     0.76369634    -2.59466906
Ti      4.28573098     2.10466000     1.47969601     1.58054357     0.01595190    -1.39607045
Ti      0.93948901     3.36334101     7.78976699    -2.96430667     0.68838870     2.15044783
Ti      2.00059000     0.35429401     1.29654501    -0.99051580    -0.67222237    -0.37473765
Ti      3.32785999     5.20103702     7.91387102     0.45377648    -1.08191058     2.19188528
Ti      0.72014203     0.58576498     5.90941300    -1.06844648    -0.11299411    -3.26870174
Ti      4.51629298     4.82436701     3.35451100     0.30767914     0.49571504     2.78614278
O       1.74162298     1.95923199     4.89350000    -0.72306981    -0.14255564    -0.79641698
O       3.55946098     3.52178499     4.50705000     0.33885121     0.28654878     0.14070110
O       4.89560199     2.98698401     9.20315201     0.72475774     0.30089709     0.20409322
O       3.35641000     1.12915598     0.13404801    -1.27306446    -2.14146362    -1.41408309
O       1.78699099     4.58672197     9.16907400     0.85483992     0.80823763    -0.49886208
O       4.33534003     0.73628701     4.74355699    -0.28071675     0.21107659    -0.41019292
O       0.95052601     4.65478401     4.51502301     0.26080226    -0.02365956    -0.25080144
O       0.18947901     3.15982600     2.61664100    -0.20998130     0.47798574    -0.26195669
O       5.09196200     2.12823501     6.67972902    -0.05006145    -0.33263917     0.88344269
O       2.69777499     1.89326899     2.37057099    -0.78316680     0.14745359    -0.11815612
O       2.62940201     3.51282099     7.14812301     1.39414855    -0.79970414    -0.54709599
O       0.10667600     0.48093698     1.91714398     0.50744442     0.40699884    -0.30342937
O       5.08852399     4.76884901     7.05849399    -0.48823776     0.45684612     1.06800271
O       2.49107100     0.61060101     6.66094000     0.06885982     0.08744762     1.01289701
O       2.69517202     4.64342501     2.46829399     1.27186041     0.82100497    -0.92417720
