# total energy = -19952.19924434 eV

CRYSTAL
PRIMVEC
        5.64333388     0.00000000     0.00000000
        0.30015405     5.99870916     0.00000000
        0.00000000     0.00000000    10.10348505
PRIMCOORD
24 1
Ti      2.22330804     3.55482935     3.74832089     0.09644392    -0.86890129     0.59453003
Ti      3.72017966     2.44387959     6.35516427    -0.09644392     0.86890129    -0.59453003
Ti      4.98929395     2.44388164     1.30338132    -0.06726523     0.31506850    -0.34339769
Ti      0.95419380     3.55482753     8.80010396     0.06726523    -0.31506850     0.34339769
Ti      2.07323113     0.55547499     1.30342181     0.09644392    -0.86890129    -0.59453003
Ti      3.87025657     5.44323412     8.80006347    -0.09644392     0.86890129     0.59453003
Ti      0.80411689     0.55547277     6.35512372     0.06726523    -0.31506850    -0.34339769
Ti      5.13937087     5.44323634     3.74836144    -0.06726523     0.31506850     0.34339769
O       1.89184006     2.11224738     5.15573108     1.10488186     1.09798924    -0.11461828
O       4.05164764     3.88646156     4.94775408    -1.10488186    -1.09798924     0.11461828
O       1.14123965     2.11227159     0.10402104    -0.89115857     0.70868500     0.21315867
O       4.80224811     3.88643741     9.99946384     0.89115857    -0.70868500    -0.21315867
O       3.90157073     0.88710703     0.10398827    -1.10488186    -1.09798924    -0.11461828
O       2.04191697     5.11160191     9.99949660     1.10488186     1.09798924     0.11461828
O       4.65217120     0.88708288     5.15576390     0.89115857    -0.70868500     0.21315867
O       1.29131644     5.11162618     4.94772126    -0.89115857     0.70868500    -0.21315867
O       0.38760607     3.64875483     2.72920342     0.28899185     0.04663906     0.39595646
O       5.55588168     2.34995411     7.37428180    -0.28899185    -0.04663906    -0.39595646
O       3.14429395     2.34989822     2.32257129     0.43389773     0.43458499    -0.10522578
O       2.79919380     3.64881072     7.78091370    -0.43389773    -0.43458499     0.10522578
O       0.23752916     0.64940030     2.32253905     0.28899185     0.04663906    -0.39595646
O       5.70595859     5.34930863     7.78094594    -0.28899185    -0.04663906     0.39595646
O       2.64911689     0.64945619     7.37431399    -0.43389773    -0.43458499    -0.10522578
O       3.29437086     5.34925274     2.72917112     0.43389773     0.43458499     0.10522578
