# total energy = -19960.36958874 eV

CRYSTAL
PRIMVEC
        7.60600008     0.00000000     0.00000000
        0.00000000     7.60600008     0.00000000
       -1.89786986    -1.89786986     4.85670466
PRIMCOORD
24 1
Ti      3.82757397     6.65663900     1.14397601     0.77922684    -0.81863698    -0.70521658
Ti      3.81323999     2.64449102     1.23153702    -1.09716674     0.93183704    -0.08269134
Ti      0.01572699     6.72740000     1.23411802    -1.03319793    -0.26084211    -0.31386676
Ti     -0.08498698     2.83884401     1.35197897     0.32413627     0.08561777    -0.90398632
Ti      5.61449622     2.94759020     3.63773180     0.57083448    -0.92428982     1.20384520
Ti      5.63486923    -0.86851978     3.65672180     1.09443932     1.10413984    -0.36404906
Ti      2.00516722     2.77032524     3.71403783    -1.51934178     0.36502994     0.18605923
Ti      1.98350323    -0.92271478     3.55447681    -0.58898776    -0.69848877     0.34898110
O       3.85960301     4.64008199     0.87145301    -0.37318471     1.42632772    -0.83017712
O       4.19049903     0.87617401     0.63070800    -1.19901049    -1.07328607     0.32757075
O      -0.29218601     4.79045400     0.75200802     1.09876829    -0.02774376     0.71810835
O      -0.22553900     1.02741398     0.79099098     0.55010469    -0.11391431    -0.19796782
O       5.66078224     4.86764625     4.06423882     0.13382700    -0.57271678    -0.21914934
O       5.51993621     1.04056822     4.02128582     0.51032971    -0.81365881     0.64626476
O       1.98260824     4.72302322     3.89437382    -0.36580949    -0.19819999     0.61885550
O       2.12068021     0.85851923     4.23221380    -0.66235602     0.92969299    -2.22686053
O       3.72294722     2.85615023     3.20335781     0.77321740     0.14361828     0.26906759
O       3.86084123    -0.84206780     3.08001681    -1.48628330    -0.36229968    -0.25839982
O      -0.12592180     2.75050623     3.35411681     1.11745584     0.59520803    -1.15886836
O       0.09858625    -0.79654776     3.22036584     0.03681487    -0.26101001    -0.18155440
O       5.74492799     6.74159698     1.64316299    -0.22939468    -0.52637418     0.31101310
O       5.61020999     2.71454102     1.62006800     1.45151709     0.78809843     1.19304810
O       1.90828402     6.83693001     1.36415302     0.89409143    -0.39169460     1.11969450
O       1.88718302     2.48492900     1.63367400    -0.78003031     0.67358557     0.50027927
