# total energy = -19952.57433167 eV

CRYSTAL
PRIMVEC
        5.60551423     0.00000000     0.00000000
        0.88991901     5.89921598     0.00000000
        0.00000000     0.00000000    10.06112953
PRIMCOORD
24 1
Ti      2.55909446     3.49586987     3.73260733     0.23928803    -1.40874960     0.78656785
Ti      3.93633871     2.40334594     6.32852243    -0.23928803     1.40874960    -0.78656785
Ti      5.19694805     2.40334794     1.29791732    -0.42298725    -0.19648403    -0.02423214
Ti      1.29848514     3.49586810     8.76321256     0.42298725     0.19648403     0.02423214
Ti      2.11413508     0.54626198     1.29795767     0.23928803    -1.40874960    -0.78656785
Ti      4.38129811     5.35295400     8.76317221    -0.23928803     1.40874960     0.78656785
Ti      0.85352573     0.54625982     6.32848208     0.42298725     0.19648403    -0.02423214
Ti      5.64190746     5.35295616     3.73264768    -0.42298725    -0.19648403     0.02423214
O       2.08753624     2.07721416     5.13411744     1.22266285     1.39599255    -0.41931803
O       4.40789694     3.82200165     4.92701227    -1.22266285    -1.39599255     0.41931803
O       1.34196844     2.07723801     0.10358496    -0.60309566     0.25084052     0.53910551
O       5.15346480     3.82197786     9.95754452     0.60309566    -0.25084052    -0.53910551
O       3.96293754     0.87239360     0.10355233    -1.22266285    -1.39599255    -0.41931803
O       2.53249563     5.02682221     9.95757715     1.22266285     1.39599255     0.41931803
O       4.70850540     0.87236980     5.13415013     0.60309566    -0.25084052     0.53910551
O       1.78692772     5.02684607     4.92697964    -0.60309566     0.25084052    -0.53910551
O       0.74496047     3.58823756     2.71776214     0.21492245     0.56517342     0.69648459
O       5.75047270     2.31097820     7.34336762    -0.21492245    -0.56517342    -0.69648459
O       3.35504101     2.31092333     2.31283475     0.65415728     0.74702864     0.07614453
O       3.14039216     3.58829242     7.74829484    -0.65415728    -0.74702864    -0.07614453
O       0.30000108     0.63862950     2.31280257     0.21492245     0.56517342    -0.69648459
O       6.19543209     5.26058625     7.74832696    -0.21492245    -0.56517342     0.69648459
O       2.69543277     0.63868437     7.34339969    -0.65415728    -0.74702864     0.07614453
O       3.80000040     5.26053138     2.71773002     0.65415728     0.74702864    -0.07614453
