# total energy = -19959.73093047 eV

CRYSTAL
PRIMVEC
        7.60600008     0.00000000     0.00000000
        0.00000000     7.60600008     0.00000000
       -1.89786986    -1.89786986     4.85670466
PRIMCOORD
24 1
Ti      3.70592300     6.75186202     1.34214998     1.17667120     1.15850300    -1.00256708
Ti      3.83750298     3.03679202     1.37926298    -1.66238259    -0.77188222    -2.87993537
Ti      0.07850397     6.60477101     1.16971202    -0.99768790    -0.04506066    -0.64686408
Ti      0.01628098     2.84829501     1.13444701     1.31949037    -0.57367863    -0.58590963
Ti      5.71375421     2.71650421     3.50605583     0.36432622     0.02521430     0.96506676
Ti      5.82418223    -1.06508976     3.60377079    -1.02954208     0.04564198    -0.47694958
Ti      1.74466025     3.06861521     3.70951781     0.49857411    -3.52013927    -1.01538121
Ti      1.83452920    -0.92371879     3.68734883     0.09935955     2.06145472     1.14139539
O       3.70434500     4.90762802     0.93645699     0.51428664    -0.85329083    -0.59175401
O       3.64781601     1.09085302     0.77197901     0.29786370    -1.78813889     0.50475787
O       0.07053800     4.67479099     0.72495299    -0.33424174     0.16329879    -0.73035478
O       0.31409501     0.89000602     0.75873201    -1.04330880    -1.14716855    -0.62670226
O       5.92493922     4.59741421     3.82582282    -1.15891387     0.50051067     1.36316006
O       5.81548922     0.81506224     3.88651580    -0.14551729     0.74117398     0.89177486
O       1.82438223     4.85634223     4.11024882     0.22003920    -0.44441663    -0.09422865
O       1.69529722     1.07579825     4.27090179     0.47001686     0.01835948    -1.14296068
O       3.84547525     2.63753922     3.20196682    -0.60923469     0.82668016     1.26892884
O       3.72629321    -0.89309276     3.12594082     0.41853384     0.09144723     2.79319146
O       0.04056720     2.70359922     3.03663682    -1.36588338     0.48356349     1.61554453
O      -0.05095776    -1.19544676     3.09289582     1.75473793     0.81105556     0.49539803
O       5.71328298     6.68974698     1.62518499     0.17902572     0.02474482    -0.65252848
O       5.71212302     2.81610199     1.52064898     0.24755979    -0.00615111     0.22485437
O       1.86361802     6.39031500     1.73603799    -0.59346045     0.95763164    -0.93658715
O       1.83844998     2.78330998     1.72826602     1.37968686     1.24064747     0.11865054
