# total energy = -19921.50308026 eV

CRYSTAL
PRIMVEC
        6.31990727     0.00000000     0.00000000
        1.33197206     6.59309186     0.00000000
        0.00000000     0.00000000    11.36879034
PRIMCOORD
24 1
Ti      3.07998772     3.90706013     4.21774027    -0.17713159    -1.73301673     0.73087260
Ti      4.57189130     2.68603189     7.15105051     0.17713159     1.73301673    -0.73087260
Ti      5.99315865     2.68603425     1.46660970     0.10021804    -0.19680388    -0.30697672
Ti      1.65872039     3.90705803     9.90218122    -0.10021804     0.19680388     0.30697672
Ti      2.41400184     0.61051445     1.46665528    -0.17713159    -1.73301673    -0.73087260
Ti      5.23787719     5.98257777     9.90213563     0.17713159     1.73301673     0.73087260
Ti      0.99273441     0.61051190     7.15100493    -0.10021804     0.19680388    -0.30697672
Ti      6.65914463     5.98258032     4.21778586     0.10021804    -0.19680388     0.30697672
O       2.46930044     2.32153975     5.80140686     1.75534369     1.91197869    -0.51136253
O       5.18257857     4.27155227     5.56738392    -1.75534369    -1.91197869     0.51136253
O       1.62871536     2.32156631     0.11704808    -0.90669344     0.39006143     0.74920097
O       6.02316373     4.27152577    11.25174238     0.90669344    -0.39006143    -0.74920097
O       4.51659268     0.97500639     0.11701118    -1.75534369    -1.91197869    -0.51136253
O       3.13528634     5.61808563    11.25177929     1.75534369     1.91197869     0.51136253
O       5.35717783     0.97497989     5.80144377     0.90669344    -0.39006143     0.74920097
O       2.29470112     5.61811220     5.56734702    -0.90669344     0.39006143    -0.74920097
O       1.03979769     4.01029214     3.07099401     0.48104432     1.21132480     1.41861724
O       6.61208133     2.58279989     8.29779678    -0.48104432    -1.21132480    -1.41861724
O       3.91136160     2.58273830     2.61343755     0.63505809     1.42579627     0.60384206
O       3.74051742     4.01035372     8.75535304    -0.63505809    -1.42579627    -0.60384206
O       0.37381180     0.71374626     2.61340122     0.48104432     1.21132480    -1.41861724
O       7.27806723     5.87934583     8.75538937    -0.48104432    -1.21132480     1.41861724
O       3.07453152     0.71380777     8.29783304    -0.63505809    -1.42579627     0.60384206
O       4.57734750     5.87928425     3.07095768     0.63505809     1.42579627    -0.60384206
