# total energy = -4990.05245732 eV

CRYSTAL
PRIMVEC
        3.03727440     0.00000000     0.00000000
        0.00000000     4.30572024     0.00000000
        0.00000000    -0.00005890     4.54369601
PRIMCOORD
6 1
Ti      1.51863720     2.15283052     2.27184801     0.00000000     0.00000000     0.00000000
Ti      0.00000000     0.00000000     0.00000000     0.00000000     0.00000000     0.00000000
O       1.51863720     0.83910992     0.88549942    -0.00000000     0.16744676     0.05844608
O       1.51863720     3.46655107     3.65819654    -0.00000000    -0.16744676    -0.05844608
O       0.00000000     1.31369674     3.15734835     0.00000000    -0.16750203     0.05854738
O       0.00000000     2.99196430     1.38634761     0.00000000     0.16750203    -0.05854738
