# total energy = -19944.12862304 eV

CRYSTAL
PRIMVEC
        5.23786134     0.00000000     0.00000000
        0.00002436     4.56109251     0.00000000
        0.00000000     0.00000000     8.60846676
PRIMCOORD
24 1
Ti      1.89848723     2.70289911     3.19367988    -0.69547055     2.01691034    -3.46900695
Ti      3.33939851     1.85819321     5.41478722     0.69547055    -2.01691034     3.46900695
Ti      4.51732715     1.85819469     1.11051928    -0.69358953    -2.01703503     3.46205263
Ti      0.72055859     2.70289778     7.49794792     0.69358953     2.01703503    -3.46205263
Ti      1.89847525     0.42235295     1.11055379    -0.69561839     2.01716128     3.46018523
Ti      3.33941050     4.13873952     7.49791340     0.69561839    -2.01716128    -3.46018523
Ti      0.72054661     0.42235128     5.41475270     0.69330799     2.01705046     3.47048688
Ti      4.51733913     4.13874114     3.19371439    -0.69330799    -2.01705046    -3.47048688
O       1.65782478     1.60603814     4.39283482    -0.01552021    -2.38662045     2.06032317
O       3.58006097     2.95505417     4.21563227     0.01552021     2.38662045    -2.06032317
O       0.96115366     1.60605657     0.08862900     0.01640056    -2.38819937     2.06111996
O       4.27673214     2.95503579     8.51983785    -0.01640056     2.38819937    -2.06111996
O       3.58004899     0.67450787     0.08860106     0.01662604     2.38755094     2.06031906
O       1.65783676     3.88658445     8.51986580    -0.01662604    -2.38755094    -2.06031906
O       4.27672010     0.67448949     4.39286277    -0.01602286     2.38763450     2.06099706
O       0.96116554     3.88660288     4.21560433     0.01602286    -2.38763450    -2.06099706
O       0.19031834     2.77431504     2.32536172     1.73036027    -0.59073380     0.64539778
O       5.04756740     1.78677728     6.28310538    -1.73036027     0.59073380    -0.64539778
O       2.80925425     1.78673489     1.97889921     1.73071431     0.59033759    -0.64623905
O       2.42863149     2.77435743     6.62956774    -1.73071431    -0.59033759     0.64623905
O       0.19030631     0.49376874     1.97887171     1.73052328    -0.59053222    -0.64638226
O       5.04757944     4.06732358     6.62959524    -1.73052328     0.59053222     0.64638226
O       2.42861946     0.49381113     6.28313284    -1.73048188    -0.59051808    -0.64568523
O       2.80926628     4.06728119     2.32533421     1.73048188     0.59051808     0.64568523
