# total energy = -4980.43500870 eV

CRYSTAL
PRIMVEC
        3.97923733     0.00000000     0.00000000
        0.00000000     2.36495023     0.00000000
        0.00000000    -0.00009441     5.39173603
PRIMCOORD
6 1
Ti      1.98961866     1.18242776     2.69586777     0.00000000     0.00000000     0.00000000
Ti      0.00000000     0.00000000     0.00000000     0.00000000     0.00000000     0.00000000
O       1.98961866     0.46087551     1.05076986     0.00000000    -1.38889604    -0.86018679
O       1.98961866     1.90398001     4.34096568     0.00000000     1.38889604     0.86018679
O       0.00000000     0.72151491     3.74663881     0.00000000     1.38876466    -0.85753521
O       0.00000000     1.64334062     1.64509672     0.00000000    -1.38876466     0.85753521
