# total energy = -19960.65165364 eV

CRYSTAL
PRIMVEC
        5.93400000     0.00000000     0.00000000
        0.00000000     9.29699974     0.00000000
        0.00000000     0.00000000     4.64899994
PRIMCOORD
24 1
Ti      4.46030698     6.86479802     2.17764498    -0.00931665     0.23421190     0.33925667
Ti      4.44001002     2.29928399     2.28165101    -0.65740458     1.90305979     0.05718650
Ti      1.48354398     6.99587702     2.35915600     0.00058724    -0.14007324    -0.31343353
Ti      1.43504202     2.27261600     2.39217502     0.52614689     0.72080235    -0.31857034
Ti      2.91796199     4.70764601     4.60166800     0.98773001    -0.95886525     0.48706122
Ti      2.97402102     0.08927802     0.04775401     1.08971620    -0.70080996    -0.55836514
Ti      0.06123200     4.59308099     4.59005002    -1.55765278    -0.17408663     0.05320231
Ti      0.00983201     0.03916499     0.02465998    -1.04583157    -0.70091743    -0.28114406
O       4.40268101     5.53300202     0.86090598     0.56885216     0.46267019     0.24504371
O       4.41604400     0.84926001     1.04752801     0.53651641     0.02096401    -0.41596094
O       1.49849598     5.61507302     0.83161798    -0.22670325    -0.16321060     0.20568422
O       1.47041699     0.91105902     1.12159298     0.15641183    -0.72381132    -1.03445314
O       4.41902502     8.42213402     3.80507902     0.02979627     0.36837931     0.22988576
O       4.49681698     3.67971301     3.72153199     0.14459812     1.02982747     0.55793114
O       1.52751501     8.57357200     3.80699602    -0.43231804    -1.11399488    -0.89497306
O       1.45676898     3.76729201     3.72036600     0.36855595    -0.34121251     0.16047983
O       2.90978700     5.96364001     3.07851601     0.32245425     0.24017892     0.83144416
O       3.09562098     1.48372998     3.25097101    -1.33821727    -0.51697319     1.01036113
O       5.90058500     6.06520299     3.29775002     0.15813627     0.64129456    -0.94776246
O       5.84584600     1.44224301     3.36484202     1.10529092     0.13420084    -0.30810466
O       2.94137200     7.78868498     1.44319098     0.07536189     1.04475299    -0.24336555
O       2.98685002     3.35791101     1.41345000    -0.08175006    -1.24243747     0.33318810
O       0.02437602     7.80364398     1.32382500    -0.23395736    -0.08395092     0.93896131
O       0.12669599     3.20948701     1.44012800    -0.48700260     0.06000057    -0.13355369
