# total energy = -4987.59498512 eV

CRYSTAL
PRIMVEC
        2.95500356     0.00000000     0.00000000
        1.35844881     4.42628036     0.00000000
       -0.00000905    -0.00006068     4.68421706
PRIMCOORD
6 1
Ti      2.15672172     2.21310988     2.34210853     0.00000000     0.00000000     0.00000000
Ti      0.00000000     0.00000000     0.00000000     0.00000000     0.00000000     0.00000000
O       1.74224169     0.86260511     0.91288490    -2.53037757     1.21959629     1.26719026
O       2.57120180     3.56361465     3.77133211     2.53037757    -1.21959629    -1.26719026
O       0.41447632     1.35048021     3.25499446     2.53007315    -1.21955876     1.26671538
O       0.94396364     3.07573934     1.42922259    -2.53007315     1.21955876    -1.26671538
