# total energy = -4938.59105360 eV

CRYSTAL
PRIMVEC
        5.45751758     0.00000000     0.00000000
       -0.00000713     2.33893626     0.00000000
       -2.72879009    -1.16955274     5.92262425
PRIMCOORD
6 1
Ti     -0.00023320     1.75427482     1.48065601    -0.02851354    -0.02568996    52.35650561
Ti      2.72895328    -0.58489125     4.44196813     0.02851354     0.02568996   -52.35650561
O       0.00005799     0.58471973     0.96474709     0.02730075     0.02336465   -45.85011479
O       2.72866194     0.58466378     4.95787711    -0.02730075    -0.02336465    45.85011479
O      -0.00002282    -0.58476206     3.92605921    -0.00145833     0.00046794    -1.17010691
O       2.72874268     1.75414553     1.99656498     0.00145833    -0.00046794     1.17010691
