# total energy = -39026.41214733 eV

CRYSTAL
PRIMVEC
        5.93200024     0.00000000     0.00000000
        0.00000000     9.29399984     0.00000000
        0.00000000     0.00000000     9.29399984
PRIMCOORD
46 1
Ti      4.35137902     7.27216602     6.77513899     1.97789255    -0.47850176     0.85598047
Ti      4.45168499     6.56579001     2.52633802    -1.16424274     2.63480605     0.60932339
Ti      4.61966400     1.97606702     6.90740197     1.22664112     0.45583079    -1.21406354
Ti      4.44374098     2.85600899     2.32808599    -1.22431607    -2.77076295    -0.82243321
Ti      1.46697798     7.04161498     6.94259798    -0.84250968     0.08131322     1.89293092
Ti      1.48262098     7.00957499     1.95098100     1.61109755     0.80889635     0.78488147
Ti      1.60171201     2.30827598     6.88069398    -1.72346045    -0.19921840     0.32694854
Ti      1.40228098     2.14448398     3.40195798     3.05313729    -0.60456711    -0.66356958
Ti      2.89114302     4.61752501     4.95874999     0.30342422     1.97562843     1.04687929
Ti      3.03374502     4.52043998     8.82302701     1.52240603     1.74233416    -1.65584916
Ti      2.94599902     0.10589001     4.88870502     4.75659532    -1.32132949    -3.11025925
Ti      3.02014601     0.16613202     0.16229300    -2.08634326     1.58382919     0.23263581
Ti      5.85507703     4.82660199     4.56440699     1.44868707     0.83202549     3.44421533
Ti      5.92761299     4.80821001     8.97314401    -0.23484311     0.55396804    -3.20287273
Ti      0.08449902     8.49683802     4.17621701    -2.08810884     1.44062563     0.45319670
Ti      5.82411899     9.21160398     0.20387702     2.82492737     1.42577468    -0.63959480
O       4.33972003     6.03101502     5.39360298    -0.39372629    -2.15158734     0.62386196
O       4.50655998     4.67220500     0.88579599    -0.44165578    -0.37543571     2.08527137
O       4.68744901     0.67218301     5.47469902    -1.79187831     0.66783581    -0.17382978
O       4.36354999     1.44136199     0.74440099     0.01167667    -0.62200794     0.34478429
O       1.19263598     5.53999198     5.78158600     2.21305576    -0.62532877    -0.06918456
O       1.41764802     5.58601802     0.65391798     0.56216574    -0.09231781     1.05412878
O       1.65515600     1.30274797     5.03800301    -1.99657522     0.38293253     1.65770652
O       1.37434597     0.98215202     0.83473700     0.19800458    -0.31393336     0.01037800
O       4.37327500     8.77817902     8.30655800     0.27486363    -2.02055128     0.04611327
O       4.26496898     8.01672699     4.06606400    -1.45232313     0.29686148    -2.20188354
O       4.67222098     4.09681502     7.59816001    -0.97248491    -0.40563255     3.82058230
O       4.41448002     4.00227401     3.89013500    -2.11036894    -0.65633320    -2.20962590
O       1.25042700     8.27752099     8.48064102    -0.14155368     0.48066689     1.10771984
O       1.61462298     8.68286499     3.27152801     2.35998459     0.43126261     1.24137792
O       1.49818298     3.72454798     8.27078498    -1.03864199    -0.84638048    -0.26288460
O       1.46172002     3.94979699     3.84607999     0.31790031    -0.78773616    -1.67826739
O       3.02003399     6.19339798     7.76387900     0.57963845    -0.59785344     0.57987731
O       2.83589798     6.09937800     3.21895002    -0.82823851    -0.39959149    -1.30179655
O       2.98893397     1.49183301     7.88285102    -0.99696439    -0.11930103    -0.55390607
O       3.29874900     1.62593600     3.12339903    -1.59515310     1.13774031    -0.11976409
O       5.84075098     6.32202102     7.74490202    -1.26671821    -0.71772834     1.71158272
O       0.19027198     6.51600999     3.62687202     0.19136779    -1.26813488    -1.64481835
O       0.07416499     1.19728501     7.74317002     1.50309472     1.60835521    -0.12482042
O       2.82228002     8.22363302     6.23328498    -0.72912605    -0.27534931     0.43518560
O       3.00205000     7.83326700     1.11784799     0.47767772    -1.28759660     1.52286111
O       3.13220999     3.07700600     6.08931501    -1.58325069     2.03334278    -2.02739324
O       0.29163900     8.05746501     5.91694901    -0.63175653    -0.35271949     0.27873340
O       5.75582999     8.16354399     1.94149201    -0.83363551    -1.08915544    -2.57916761
O       5.85133701     3.05106399     5.80336403     1.24859938    -0.09412555     0.66253702
O       5.70414498     1.73802299     2.99847599    -0.49496248    -0.10084950    -0.57370872
