# total energy = -4986.49424401 eV

CRYSTAL
PRIMVEC
        3.14658987     0.00000000     0.00000000
        1.89624414     4.55098563     0.00000000
       -0.00001209    -0.00006550     5.03592974
PRIMCOORD
6 1
Ti      2.52141088     2.27545991     2.51796481     0.00000000     0.00000000     0.00000000
Ti      0.00000000     0.00000000     0.00000000     0.00000000     0.00000000     0.00000000
O       1.94284255     0.88690719     0.98142851    -1.10631988     0.80732669     0.53822928
O       3.09997920     3.66401263     4.05450106     1.10631988    -0.80732669    -0.53822928
O       0.57856314     1.38852628     3.49939443     1.10584654    -0.80723593     0.53818737
O       1.31766889     3.16239374     1.53653520    -1.10584654     0.80723593    -0.53818737
