# total energy = -4978.03544847 eV

CRYSTAL
PRIMVEC
        4.42796818     0.00000000     0.00000000
        0.00000000     2.31265422     0.00000000
        0.00000000    -0.00012198     6.16707705
PRIMCOORD
6 1
Ti      2.21398388     1.15626607     3.08353852     0.00000000     0.00000000     0.00000000
Ti      0.00000000     0.00000000     0.00000000     0.00000000     0.00000000     0.00000000
O       2.21398388     0.45067847     1.20187250    -0.00000000    -0.38138679     1.26413887
O       2.21398388     1.86185372     4.96520460    -0.00000000     0.38138679    -1.26413887
O       0.00000000     0.70553969     4.28541228    -0.00000000     0.38117184     1.26455051
O       0.00000000     1.60699250     1.88166477    -0.00000000    -0.38117184    -1.26455051
