# total energy = -4985.52872993 eV

CRYSTAL
PRIMVEC
        3.94956951     0.00000000     0.00000000
        0.00000000     3.71302971     0.00000000
        0.00000000    -0.00007313     5.28075330
PRIMCOORD
6 1
Ti      1.97478459     1.85647840     2.64037676     0.00000000     0.00000000     0.00000000
Ti      0.00000000     0.00000000     0.00000000     0.00000000     0.00000000     0.00000000
O       1.97478459     0.72360060     1.02914110     0.00000000     0.24449118     1.13857669
O       1.97478459     2.98935621     4.25161248     0.00000000    -0.24449118    -1.13857669
O       0.00000000     1.13284861     3.66951889    -0.00000000    -0.24482259     1.14044665
O       0.00000000     2.58010820     1.61123464    -0.00000000     0.24482259    -1.14044665
