# total energy = -19912.53215059 eV

CRYSTAL
PRIMVEC
        8.00688900     0.00000000     0.00000000
        0.00002818     4.58863534     0.00000000
        0.00000000     0.00000000    12.11375383
PRIMCOORD
24 1
Ti      2.90212895     2.71922120     4.49411643     0.41479700    -0.36553670     2.45945855
Ti      5.10478841     1.86941452     7.61963790    -0.41479700     0.36553670    -2.45945855
Ti      6.90543623     1.86941614     1.56271237     0.41334304     0.36583032    -2.46041783
Ti      1.10148113     2.71921970    10.55104209    -0.41334304    -0.36583032     2.46041783
Ti      2.90211499     0.42490359     1.56276092     0.41479700    -0.36553670    -2.45945855
Ti      5.10480237     4.16373225    10.55099354    -0.41479700     0.36553670     2.45945855
Ti      1.10146717     0.42490178     7.61958934    -0.41334304    -0.36583032    -2.46041783
Ti      6.90545020     4.16373400     4.49416499     0.41334304     0.36583032     2.46041783
O       2.53424092     1.61573658     6.18155605     1.01318214     1.26697969    -1.94856807
O       5.47267644     2.97289907     5.93219828    -1.01318214    -1.26697969     1.94856807
O       1.46927037     1.61575507     0.12471787    -1.01273631     1.26682439    -1.94855291
O       6.53764706     2.97288065    11.98903608     1.01273631    -1.26682439     1.94855291
O       5.47266248     0.67858140     0.12467857    -1.01318214    -1.26697969    -1.94856807
O       2.53425488     3.91005432    11.98907538     1.01318214     1.26697969     1.94856807
O       6.53763310     0.67856291     6.18159535     1.01273631    -1.26682439    -1.94855291
O       1.46928414     3.91007281     5.93215892    -1.01273631     1.26682439     1.94855291
O       0.29092592     2.79106816     3.27222723    -2.23171272     0.74528929     0.32353334
O       7.71599144     1.79756755     8.84152710     2.23171272    -0.74528929    -0.32353334
O       4.29438030     1.79752465     2.78468841    -2.23177057    -0.74509286    -0.32441472
O       3.71253706     2.79111107     9.32906567     2.23177057     0.74509286     0.32441472
O       0.29091196     0.49675043     2.78464974    -2.23171272     0.74528929    -0.32353334
O       7.71600540     4.09188529     9.32910433     2.23171272    -0.74528929     0.32353334
O       3.71252310     0.49679334     8.84156570     2.23177057     0.74509286    -0.32441472
O       4.29439426     4.09184238     3.27218857    -2.23177057    -0.74509286     0.32441472
