# total energy = -19517.83609747 eV

CRYSTAL
PRIMVEC
        5.93400000     0.00000000     0.00000000
        0.00000000     9.29699974     0.00000000
        0.00000000     0.00000000     4.64899994
PRIMCOORD
23 1
Ti      4.49692499     6.90856399     2.32018400     0.19945983     0.69183424    -0.56773141
Ti      4.50871400     2.32843202     2.33749403    -0.37715141    -1.24573697     0.71491761
Ti      1.46089402     7.07488901     2.33474199    -0.16624142     0.61789185    -0.97404043
Ti      1.51139399     2.34247602     2.22999198    -0.06135323    -1.53398268     0.50938946
Ti      3.01437602     4.54773299     0.04197900    -1.63584237     0.14056586     0.20282926
Ti      2.95865699     9.21606002     4.49944302    -0.94125293     0.27755686     0.78257673
Ti      0.00323100     4.66699398     0.08087501     1.32160511     0.69925496    -0.46904344
Ti      5.79993099     0.02752801     0.01588902     1.56886562     0.25443312     0.12747508
O       4.34759498     5.55556302     0.90928903     0.93407621     0.77829430     0.47261779
O       4.42833102     0.93601899     0.81284700    -0.16953089     0.47009219     0.73061857
O       1.45894898     5.65983200     0.94167298     0.12181788    -0.40819852    -0.17461242
O       1.44734799     0.88311798     0.94419599     0.11087064     0.54862220     0.03227481
O       4.42057402     8.28778300     3.67668702     0.26363279     0.45094492     1.22226279
O       4.44898603     3.71348098     3.89933798     0.36409380    -0.39513165    -1.73758764
O       1.44082101     8.53090000     3.65941499    -0.00810772    -1.34494328     0.08735198
O       1.53545700     3.77176599     3.79100597    -0.64607244     0.00065049    -0.47155875
O       3.09306098     1.30439202     3.16990402    -0.63617061     1.03295393    -0.28723167
O       0.01856999     6.07967398     3.23492699    -0.05923284    -0.71351507     0.62419055
O       0.04650701     1.41624798     3.29073302    -0.56856882     0.76647699    -0.84781413
O       3.00717101     7.92752501     1.48761001    -0.54498948    -0.88550317    -0.03311839
O       2.96130198     3.31676399     1.40876800     0.24327170    -1.01511124     1.28766808
O       5.88188599     7.87940401     1.50119701     0.09376431     0.44156116    -1.07185551
O       5.90132198     3.27416999     1.46674202     0.59305576     0.37098898    -0.15957892
