# total energy = -4987.00951383 eV

CRYSTAL
PRIMVEC
        3.55726738     0.00000000     0.00000000
        1.04368958     3.40071511     0.00000000
       -2.30051058    -1.70038129     4.59298061
PRIMCOORD
6 1
Ti      0.78265833     2.55066671     1.14824488     0.00098628    -0.00092380    -0.00090349
Ti      1.51778783    -0.85033304     3.44473504    -0.00098628     0.00092380     0.00090349
O       0.26095960     0.85017406     0.74815888     0.00039184     0.00116342    -0.05191728
O       2.03948639     0.85015952     3.84482104    -0.00039184    -0.00116342     0.05191728
O      -0.26093221    -0.85015381     3.04464904     0.00119196     0.00038875    -0.05168948
O       2.56137818     2.55048730     1.54833093    -0.00119196    -0.00038875     0.05168948
