# total energy = -19887.42744010 eV

CRYSTAL
PRIMVEC
        9.11838178     0.00000000     0.00000000
        0.00002871     3.68109912     0.00000000
        0.00000000     0.00000000    14.11298155
PRIMCOORD
24 1
Ti      3.30499197     2.18141588     5.23581552     0.20582306    -0.14118267     2.43638932
Ti      5.81341878     1.49968311     8.87716616    -0.20582306     0.14118267    -2.43638932
Ti      7.86402723     1.49968436     1.82061893     0.20592307     0.14085177    -2.43567686
Ti      1.25438352     2.18141482    12.29236287    -0.20592307    -0.14085177     2.43567686
Ti      3.30497774     0.34086639     1.82067551     0.20580043    -0.14073530    -2.43526626
Ti      5.81343301     3.34023273    12.29230629    -0.20580043     0.14073530     2.43526626
Ti      1.25436929     0.34086507     8.87710958    -0.20569810    -0.14141304    -2.43690996
Ti      7.86404146     3.34023405     5.23587210     0.20569810     0.14141304     2.43690996
O       2.88603564     1.29617755     7.20174644     1.20199657     0.75312345    -2.26898036
O       6.23237518     2.38492144     6.91123524    -1.20199657    -0.75312345     2.26898036
O       1.67322899     1.29619238     0.14530106    -1.20009164     0.75298898    -2.26902535
O       7.44518189     2.38490661    13.96768023     1.20009164    -0.75298898     2.26902535
O       6.23236095     0.54437188     0.14525528    -1.20190864    -0.75321729    -2.26980337
O       2.88604980     3.13672711    13.96772601     1.20190864     0.75321729     2.26980337
O       7.44516766     0.54435705     7.20179228     1.20123218    -0.75296352    -2.26866462
O       1.67324302     3.13674200     6.91118939    -1.20123218     0.75296352     2.26866462
O       0.33130939     2.23905314     3.81226839    -1.80493283     0.54764929     0.13611142
O       8.78710136     1.44204585    10.30071329     1.80493283    -0.54764929    -0.13611142
O       4.89051229     1.44201163     3.24426727    -1.80629346    -0.54762872    -0.13742500
O       4.22789853     2.23908742    10.86871416     1.80629346     0.54762872     0.13742500
O       0.33129516     0.39850358     3.24422219    -1.80461967     0.54754825    -0.13676423
O       8.78711559     3.28259541    10.86875923     1.80461967    -0.54754825     0.13676423
O       4.22788430     0.39853780    10.30075823     1.80611399     0.54761715    -0.13580700
O       4.89052651     3.28256119     3.81222338    -1.80611399    -0.54761715     0.13580700
