# total energy = -19959.24512556 eV

CRYSTAL
PRIMVEC
        5.93400000     0.00000000     0.00000000
        0.00000000     9.29699974     0.00000000
        0.00000000     0.00000000     4.64899994
PRIMCOORD
24 1
Ti      4.38582798     6.73818400     2.24784097     1.28968819     0.53858486     0.88154238
Ti      4.48961102     2.34103999     2.32175100    -0.36091180    -1.89369043     0.47653204
Ti      1.51029600     7.04206102     2.30090602    -1.10266659    -0.01909225     0.34145625
Ti      1.47951699     2.52676099     2.32403800    -0.00815091    -2.50120762    -0.09712757
Ti      2.89575898     4.66089998     0.00518599     0.45655584    -1.54938976     0.06881252
Ti      2.99376102     9.16149301     4.50638001    -0.72038481     3.01739328     0.91444429
Ti      5.92751001     4.67712201     0.08211101     0.32015903    -1.18547157    -1.03080063
Ti      0.01567000     9.16201398     0.17511301     0.16574211     2.62232797     1.08605443
O       4.50675303     5.60121599     0.78515098    -1.45946103     1.48132158     1.19891330
O       4.55852498     1.04347102     0.79754801    -0.55721534    -0.56975487     0.33428776
O       1.51049503     5.64513601     0.88471901     0.32266560    -0.51268073    -0.33756746
O       1.48376898     0.87664398     0.90109398     0.01085597    -0.01407088    -0.25079295
O       4.49321201     8.53046401     3.76393898     0.05070114    -1.99026701    -1.28869266
O       4.50406899     3.75837098     3.90977002    -0.56055855    -0.04136521    -0.97169429
O       1.42617201     8.47133602     3.78444100     0.65008259    -1.47395820    -1.53568629
O       1.51042703     3.60136298     3.88843402    -0.13680614     1.43909094     0.45281309
O       2.80608202     6.11330901     3.34258398     1.83114652     0.01821396    -0.93081399
O       2.94247100     1.49645701     3.13605499     0.15895311    -0.70521761     0.54404846
O       0.13308199     5.98159299     3.01040899    -1.86760941    -0.75647128     2.03611571
O       0.06725001     1.46266100     3.00909198    -0.44786782     0.10671548     0.78233633
O       2.98060102     7.79678002     1.37950598     1.06370768     0.33527609    -0.05028077
O       2.98239102     3.30553898     1.46709900    -0.05396028     1.41463203    -0.75034305
O       5.88050198     7.72146100     1.48387201    -0.65328079     1.92830572    -1.17710391
O       5.78694000     3.49716702     1.57299298     1.60861566     0.31077527    -0.69645323
