# total energy = -19957.46318483 eV

CRYSTAL
PRIMVEC
        7.60600008     0.00000000     0.00000000
        0.00000000     7.60600008     0.00000000
       -1.89786986    -1.89786986     4.85670466
PRIMCOORD
24 1
Ti      3.64922097     6.69108903     1.16788202     1.40885887    -1.77379650     0.61984692
Ti      3.90195698     2.88911501     1.12964002    -1.47338613     2.00865118     0.14646526
Ti     -0.07298503     6.48164998     1.26376502    -1.81735563    -0.10791053    -0.39269784
Ti     -0.00090701     2.70230200     1.16418302     0.96816391     0.98114799     3.69339029
Ti      5.81594125     2.69881022     3.59706082    -0.43007090     3.53239366     1.07986039
Ti      5.67045021    -0.95187377     3.75330379     0.20053995    -4.59255014    -2.19223804
Ti      1.93598021     3.01661820     3.50833383     0.64772412    -0.16174687     1.11172716
Ti      1.88996020    -0.97332080     3.62316884    -0.83026351     0.27909618    -0.00497432
O       3.95953602     4.84307099     0.68324800    -0.15335530     0.18061544     0.91182305
O       3.50107902     0.96596402     0.74573801     0.91013358     1.62903126     0.18157343
O       0.16498799     4.80235900     0.57235499    -0.90266658    -2.90693479     2.33494512
O      -0.25245898     0.76502700     0.86643900     0.58463694     3.29582586     0.54415387
O       5.75208823     4.69891623     4.23552979    -0.83398878     1.72584335    -2.24581908
O       5.90085620     0.87328021     4.31742780     0.13456362    -0.37509966    -4.15564910
O       1.95719222     4.82667322     4.13642680     0.08251290     0.88321180    -0.80039165
O       1.78802923     1.22122425     4.06941279     0.47007291    -3.27129136    -0.94968410
O       3.87173323     2.97179620     3.17300384     1.58558911    -1.07350385    -0.22209712
O       3.70367125    -1.07049478     3.27748983     0.46514256     1.16641044    -0.01105189
O       0.06056725     3.18800220     3.54526479    -0.68213500    -1.55075296    -2.73906355
O      -0.10721576    -1.24466479     3.24412484     0.05744438     1.12511285     0.69530394
O       5.57993798     6.46306999     1.62774700     0.04124874     1.30761727     1.41166291
O       5.84098001     2.95679699     1.62617598     0.10724152    -0.55991449    -0.49440918
O       1.75877002     6.67006201     1.62032402     1.69544879     0.16735677     1.12196530
O       2.10344099     3.35587601     1.58462598    -2.23610056    -1.90881289     0.35535796
