# total energy = -4989.77648111 eV

CRYSTAL
PRIMVEC
        3.81358034     0.00000000     0.00000000
        0.93871899     3.69624156     0.00000000
       -2.37618439    -1.84814779     4.90605181
PRIMCOORD
6 1
Ti      0.70391540     2.77232272     1.22651287     0.00046717    -0.00046717     0.00000000
Ti      1.67219971    -0.92422881     3.67953862    -0.00046717     0.00046717     0.00000000
O       0.23471974     0.92405513     0.79915569    -0.00034864    -0.00019412    -0.62080260
O       2.14139521     0.92403870     4.10689580     0.00034864     0.00019412     0.62080260
O      -0.23469248    -0.92403393     3.25218144    -0.00019412    -0.00034864    -0.62080260
O       2.61080742     2.77212770     1.65387005     0.00019412     0.00034864     0.62080260
