# total energy = -4989.15861384 eV

CRYSTAL
PRIMVEC
        3.08596616     0.00000000     0.00000000
        0.95747444     4.73949894     0.00000000
       -0.00000638    -0.00006331     4.85984833
PRIMCOORD
6 1
Ti      2.02171706     2.36971782     2.42992427     0.00000000     0.00000000     0.00000000
Ti      0.00000000     0.00000000     0.00000000     0.00000000     0.00000000     0.00000000
O       1.72957945     0.92364625     0.94711292    -0.27826648     0.01680679    -0.09620197
O       2.31385466     3.81578939     3.91273562     0.27826648    -0.01680679     0.09620197
O       0.29213499     1.44604593     3.37703807     0.27807134    -0.01639053    -0.09660332
O       0.66533306     3.29338959     1.48281048    -0.27807134     0.01639053     0.09660332
