# total energy = -19517.78409051 eV

CRYSTAL
PRIMVEC
        5.17600016     0.00000000     0.00000000
        0.00000000     5.50899976     0.00000000
        0.00000000     0.00000000     9.26300011
PRIMCOORD
23 1
Ti      1.85256203     3.29322301     3.46141502    -0.67245146    -1.56790377     2.67976746
Ti      3.37086099     2.18163000     5.84326902    -0.65292212     0.79362939    -2.54480609
Ti      4.34066201     2.09306102     1.43637301     1.04384847    -0.29938348     0.07777050
Ti      0.91431700     3.33138299     7.79372000    -0.81068713     1.07245432     0.91485181
Ti      2.04503199     0.35138301     1.31288802    -1.86426697    -0.47403704    -0.42071748
Ti      3.28197000     5.22593401     7.95586599     0.45935886    -1.88130928     0.26984483
Ti      0.69183798     0.55753401     5.91689303    -0.56726450     0.04760065    -3.41464764
Ti      4.47935800     4.86512101     3.38665201     0.60374461     0.23666576     2.29638318
O       1.65493703     1.91905997     4.87011602     0.24510130     0.62062057    -0.86973716
O       3.50943902     3.57625500     4.44571100     0.35955400    -0.21384696     0.82046092
O       5.05993698     2.97754301     0.03680698     0.06903260    -0.07150446    -0.48424843
O       3.43768898     0.93218901     0.08105397     0.03081571     0.51586967    -0.05895285
O       1.90635602     4.57283599     9.21274700    -0.01056132    -0.11000212    -1.37659203
O       4.25575298     0.84106802     4.75343397    -0.00118399    -0.42290035    -0.57526552
O       0.90143302     4.68649602     4.53684099     0.10467942    -0.14420654    -0.41493789
O       0.18771399     3.23725500     2.61282098    -0.74931950     0.24562298    -0.44942129
O       5.05941299     2.11522302     6.72587698    -0.00674632    -0.11225003     1.21098875
O       2.66227598     1.87584302     2.26032099    -0.35130512     1.36714605     0.24002440
O       2.61584200     3.57295002     7.04109501     0.30099890    -1.11850125     0.29958839
O       0.09544098     0.53633501     1.96597598     0.97724711     0.11807256    -0.46481603
O       5.10598599     4.76205501     7.10453098    -0.77047094     0.43224348     1.24642705
O       2.42321301     0.65463200     6.67805502     0.61751827     0.35763493     1.50536912
O       2.66232001     4.64404399     2.45490999     1.64528038     0.60828467    -0.48733376
