# total energy = -4988.67936156 eV

CRYSTAL
PRIMVEC
        3.16852958     0.00000000     0.00000000
        0.74052667     4.90907129     0.00000000
       -0.00000465    -0.00006444     4.97871157
PRIMCOORD
6 1
Ti      1.95452551     2.45450333     2.48935573     0.00000000     0.00000000     0.00000000
Ti      0.00000000     0.00000000     0.00000000     0.00000000     0.00000000     0.00000000
O       1.72858148     0.95669307     0.97027752     0.22188551    -0.37949137    -0.47142377
O       2.18046954     3.95231359     4.00843388    -0.22188551     0.37949137     0.47142377
O       0.22594201     1.49778415     3.45963431    -0.22205675     0.38041851    -0.47214779
O       0.51457955     3.41122261     1.51907709     0.22205675    -0.38041851     0.47214779
