# total energy = -19071.02140732 eV

CRYSTAL
PRIMVEC
        5.17600016     0.00000000     0.00000000
        0.00000000     5.50899976     0.00000000
        0.00000000     0.00000000     9.26300011
PRIMCOORD
22 1
Ti      1.92391099     3.49399101     3.42502000    -1.09967666     0.62671717    -0.15969950
Ti      3.72649800     2.31640398     6.07884000     0.03650454     1.18756085    -0.51208115
Ti      4.37131900     2.28844199     1.58672602     1.04468742    -1.12912685    -0.84699266
Ti      1.11358499     2.54030502     7.61812301    -2.70348821    -0.04648685     2.81379346
Ti      1.81430902     0.62376498     1.25220102    -0.66991763     0.21701070    -1.31754302
Ti      3.06904998     5.40871501     7.95688000     2.16933413     1.59605325    -2.23705624
Ti      0.42663201     5.27038898     6.28960002     2.44686502     2.87119593    -2.69223243
Ti      4.40872400     5.14711100     3.52793799     1.84464713    -0.72677297     1.33588785
O       3.49837799     3.04146402     4.31802498     0.11161883     1.25215984     0.70561664
O       0.72445101     1.87593700     0.20674701     0.36959030     0.62334594    -0.04445799
O       4.70049699     4.03115698     7.07365200    -4.77505739    -2.60741428     2.02616374
O       3.42573799     1.11743100     0.23750898    -0.07916224     0.15058160    -0.66967312
O       2.12529898     4.70875602     9.13442199    -2.46495582    -2.12158770     2.16456010
O       4.56992901     0.95880202     5.12899001    -1.21501433    -1.43196204    -2.70841624
O       1.05874599     4.98311500     4.34570698    -0.28508171    -1.61774617     1.14233770
O       0.26942499     3.75316298     2.31519698    -1.12523395    -1.61530747     0.02457513
O       4.80535801     1.22833999     7.30489299     0.14381702     0.17612655     1.79201329
O       2.48411798     2.10174799     2.10712602     0.58280811     0.80361865     1.85211439
O       1.71432802     3.92925898     6.61099800     3.95340245     0.68551806    -0.50468357
O       0.01413501     0.67824003     2.30404097     0.32888433     2.05096101    -0.76375059
O       2.11162699     1.42195801     6.60032502     1.14909482    -2.37341115    -0.34793621
O       2.82657102     4.74625299     2.52000498     0.23633332     1.42896619    -1.05253983
