# total energy = -4986.43734484 eV

CRYSTAL
PRIMVEC
        3.70184025     0.00000000     0.00000000
        0.00000000     4.28712589     0.00000000
        0.00000000    -0.00006764     5.15977209
PRIMCOORD
6 1
Ti      1.85092018     2.14352895     2.57988604     0.00000000     0.00000000     0.00000000
Ti      0.00000000     0.00000000     0.00000000     0.00000000     0.00000000     0.00000000
O       1.85092018     0.83548444     1.00556357     0.00000000     0.40457095     0.53687405
O       1.85092018     3.45157340     4.15420847     0.00000000    -0.40457095    -0.53687405
O       0.00000000     1.30801717     3.58545076     0.00000000    -0.40484451     0.53741475
O       0.00000000     2.97904073     1.57432133     0.00000000     0.40484451    -0.53741475
