# total energy = -4896.91736810 eV

CRYSTAL
PRIMVEC
        4.87183276     0.00000000     0.00000000
       -0.00000636     2.08792847     0.00000000
       -2.43594433    -1.04403977     5.28702555
PRIMCOORD
6 1
Ti     -0.00020817     1.56601118     1.32175634    -0.04999461    -0.04807733    90.25809522
Ti      2.43609000    -0.52212244     3.96526912     0.04999461     0.04807733   -90.25809522
O       0.00005176     0.52196932     0.86121325     0.04877333     0.04960020   -81.26980911
O       2.43582992     0.52191938     4.42581225    -0.04877333    -0.04960020    81.26980911
O      -0.00002037    -0.52200711     3.50472603    -0.00079807    -0.00076773     0.70883001
O       2.43590201     1.56589576     1.78229947     0.00079807     0.00076773    -0.70883001
