# total energy = -19939.85412660 eV

CRYSTAL
PRIMVEC
        6.22254863     0.00000000     0.00000000
        0.00003097     5.99194249     0.00000000
        0.00000000     0.00000000    10.63324344
PRIMCOORD
24 1
Ti      2.25539298     3.55081951     3.94485757     0.16301700    -0.70676721     0.59251454
Ti      3.96718662     2.44112285     6.68838624    -0.16301700     0.70676721    -0.59251454
Ti      5.36655885     2.44112491     1.37172186     0.16312884     0.70658492    -0.59236953
Ti      0.85602081     3.55081776     9.26152213    -0.16312884    -0.70658492     0.59236953
Ti      2.25537755     0.55484839     1.37176451     0.16301700    -0.70676721    -0.59251454
Ti      3.96720211     5.43709416     9.26147948    -0.16301700     0.70676721     0.59251454
Ti      0.85600533     0.55484621     6.68834364    -0.16312884    -0.70658492    -0.59236953
Ti      5.36657427     5.43709640     3.94490023     0.16312884     0.70658492     0.59236953
O       1.96948685     2.10986474     5.42606288     1.09949462     1.17882913    -0.30887934
O       4.25309281     3.88207763     5.20718093    -1.09949462    -1.17882913     0.30887934
O       1.14184574     2.10988897     0.10947521    -1.09931799     1.17910372    -0.30960362
O       5.08073398     3.88205346    10.52376836     1.09931799    -1.17910372     0.30960362
O       4.25307732     0.88610632     0.10944073    -1.09949462    -1.17882913    -0.30887934
O       1.96950234     5.10583604    10.52380283     1.09949462     1.17882913     0.30887934
O       5.08071850     0.88608215     5.42609741     1.09931799    -1.17910372    -0.30960362
O       1.14186104     5.10586027     5.20714645    -1.09931799     1.17910372     0.30960362
O       0.22609853     3.64463911     2.87230440    -0.10512345    -0.13198994     0.15748913
O       5.99648113     2.34730332     7.76093941     0.10512345     0.13198994    -0.15748913
O       3.33737835     2.34724755     2.44435131    -0.10523966     0.13214858    -0.15771281
O       2.88520125     3.64469488     8.18889237     0.10523966    -0.13214858     0.15771281
O       0.22608304     0.64866780     2.44431732    -0.10512345    -0.13198994    -0.15748913
O       5.99649656     5.34327463     8.18892630     0.10512345     0.13198994     0.15748913
O       2.88518582     0.64872357     7.76097334     0.10523966    -0.13214858    -0.15771281
O       3.33739384     5.34321880     2.87227047    -0.10523966     0.13214858     0.15771281
