# total energy = -4990.34487520 eV

CRYSTAL
PRIMVEC
        3.79475957     0.00000000     0.00000000
        0.56602168     3.75230858     0.00000000
       -2.18042482    -1.87618371     4.85671372
PRIMCOORD
6 1
Ti      0.42437827     2.81437486     1.21417817     0.00034658    -0.00034658     0.00000000
Ti      1.75597856    -0.93824965     3.64253502    -0.00034658     0.00034658     0.00000000
O       0.14154533     0.93807153     0.79111885    -0.00021392     0.00001054    -0.17192330
O       2.03881133     0.93805353     4.06559434     0.00021392    -0.00001054     0.17192330
O      -0.14152212    -0.93805155     3.21947571     0.00001054    -0.00021392    -0.17192330
O       2.32187872     2.81417662     1.63723748    -0.00001054     0.00021392     0.17192330
