# total energy = -19076.58989164 eV

CRYSTAL
PRIMVEC
        7.60600008     0.00000000     0.00000000
        0.00000000     7.60600008     0.00000000
       -1.89786986    -1.89786986     4.85670466
PRIMCOORD
22 1
Ti      3.83036501     6.65610898     1.16837998     0.20582923    -0.39990928     0.27617566
Ti      3.71450801     2.81498098     1.19278701     0.72491355     0.87519818     0.20127760
Ti      0.13175699     6.74371200     1.04747398    -0.52992744    -1.36310761     1.55941938
Ti      0.00009901     2.86947999     1.15633701    -0.86067196     0.64644422    -0.55862739
Ti      5.66996421     2.85918321     3.57241280    -0.01344765    -0.71037910     0.06352478
Ti      6.10444122    -1.04956979     3.72726679     0.18874887     1.76145263    -1.59376368
Ti      1.85975122     2.83235524     3.64661282     0.01163656    -0.75298589     0.09344421
Ti      1.60781924    -1.01864980     3.82025879    -0.67411419     1.28146169    -1.39594601
O       3.57468202     4.70060002     0.75171099     0.42354055     1.47280120     0.02490320
O       3.71725100     0.96072199     0.88909800     0.02005281    -1.46967628     0.64124262
O       0.15949900     4.78552302     0.73729801    -0.66104809     0.15698442    -0.43310146
O      -0.17715801     0.97506698     0.68058201     0.29546897    -0.14845838     1.50143739
O       5.49231925     4.80798321     3.97621881     0.34722427    -0.78820616    -0.29298194
O       5.77093721     0.89603023     4.01278681     0.05360212     0.75391715    -0.19405743
O       2.10160824     4.81635823     4.11925081    -0.04005472    -0.92524498     0.01759021
O       1.98811321     0.87271023     4.08009482    -0.52361847     0.38350923    -0.43383731
O       3.72022122     2.83485523     3.17933280     0.33218125    -0.04001461     0.40234103
O      -0.03971978     2.96175125     3.23310980     0.09239417    -0.06025280    -0.43434227
O       5.75600398     6.66408199     1.87026697    -0.69510931    -0.14461535    -0.75817027
O       5.62444200     2.87849802     1.51201599     0.61571516     0.16062356     1.02465492
O       1.89862802     6.75146101     1.90730102     0.47782016    -0.28156264    -0.37377426
O       1.81412598     2.83123799     1.57600098     0.20886390    -0.40797894     0.66259127
