# total energy = -4983.81242704 eV

CRYSTAL
PRIMVEC
        4.07046688     0.00000000     0.00000000
        0.00000000     2.73334769     0.00000000
        0.00000000    -0.00008760     5.42330932
PRIMCOORD
6 1
Ti      2.03523344     1.36662999     2.71165455     0.00000000     0.00000000     0.00000000
Ti      0.00000000     0.00000000     0.00000000     0.00000000     0.00000000     0.00000000
O       2.03523344     0.53267213     1.05692309    -0.00000000    -1.04742719     0.75996387
O       2.03523344     2.20058791     4.36638602    -0.00000000     1.04742719    -0.75996387
O       0.00000000     0.83392313     3.76857868     0.00000000     1.04721173     0.76021121
O       0.00000000     1.89933686     1.65473038     0.00000000    -1.04721173    -0.76021121
