# total energy = -19075.29119918 eV

CRYSTAL
PRIMVEC
        7.60600008     0.00000000     0.00000000
        0.00000000     7.60600008     0.00000000
       -1.89786986    -1.89786986     4.85670466
PRIMCOORD
22 1
Ti      3.84303003     6.72160800     1.12813298     0.54436959    -0.65851170     1.06048377
Ti      3.75451698     2.86823002     1.23488501     0.81516573     0.89208931    -0.15874974
Ti     -0.07674901     6.57266498     1.04909998    -0.95575653    -1.52094127    -0.22051537
Ti     -0.05756702     2.66385102     1.16475601    -0.83249986     2.63348939     0.69763465
Ti      5.70809921     2.74382823     3.57127179    -0.09443614     0.58658301     0.26452368
Ti     -1.38239979    -0.91405675     3.85014783    -1.13269683    -1.31410468    -2.75166273
Ti      1.93667422     2.93891524     3.68201081    -0.23660200    -0.76383981    -0.77802510
Ti      1.61919523    -0.80399376     3.73540680     0.01280153     0.29270221    -0.34667611
O       3.76823098     4.82676201     0.74611098    -0.35925935     0.07534698     0.70726523
O       4.01373800     1.04916999     0.75373801    -0.88154367    -0.68110502     1.28920508
O      -0.18867503     4.60828198     0.63033700     0.50319104     0.85673046     0.85557295
O       7.10627800     0.93294002     0.56684202     0.84745263    -1.41139243     1.92687824
O       5.77416524     4.68293725     3.96651581     0.53610272     1.18250220     1.07732039
O       5.55416223     0.82531521     3.92056783     1.11169194     0.25509518     0.09544453
O       2.11941124     4.86138322     4.17916384    -0.46596917     0.50604857    -1.46261500
O       2.13492524     1.05094422     4.01153080    -1.15124221    -1.12205375    -0.11895393
O       3.79849124     2.91503824     3.22085083    -0.46496490     0.17203849    -0.45321289
O      -0.04320579     2.86996921     3.22597279     1.14405083    -0.55346950    -0.44634727
O       5.65582899     6.46351799     2.00132402     0.24440144     0.84893821    -0.87866403
O       5.65668398     2.92587700     1.58022498     0.42546168    -0.38575355     0.38702650
O       1.67403498     6.56488501     1.83644101     1.11836987     0.53948398    -0.51469776
O       1.88685599     2.91019901     1.63358700    -0.72808783    -0.42987652    -0.23123508
