# total energy = -19923.90797705 eV

CRYSTAL
PRIMVEC
        6.57579375     0.00000000     0.00000000
        0.00003273     6.33209643     0.00000000
        0.00000000     0.00000000    11.23687735
PRIMCOORD
24 1
Ti      2.38342839     3.75239442     4.16880145     0.21401896    -0.87176422     0.73795470
Ti      4.19239809     2.57970188     7.06807628    -0.21401896     0.87176422    -0.73795470
Ti      5.67121066     2.57970406     1.44959253     0.21386033     0.87179996    -0.73785880
Ti      0.90461588     3.75239256     9.78728540    -0.21386033    -0.87179996     0.73785880
Ti      2.38341209     0.58634634     1.44963761     0.21401896    -0.87176422    -0.73795470
Ti      4.19241445     5.74575016     9.78724032    -0.21401896     0.87176422     0.73795470
Ti      0.90459952     0.58634403     7.06803127    -0.21386033    -0.87179996    -0.73785880
Ti      5.67122696     5.74575253     4.16884653     0.21386033     0.87179996     0.73785880
O       2.08129178     2.22963872     5.73409265     1.16630708     1.34505563    -0.42015646
O       4.49453476     4.10245758     5.50278509    -1.16630708    -1.34505563     0.42015646
O       1.20666667     2.22966433     0.11568996    -1.16611476     1.34481909    -0.42048968
O       5.36915993     4.10243204    11.12118752     1.16611476    -1.34481909     0.42048968
O       4.49451839     0.93640930     0.11565352    -1.16630708    -1.34505563    -0.42015646
O       2.08130815     5.39568700    11.12122396     1.16630708     1.34505563     0.42015646
O       5.36914357     0.93638376     5.73412914     1.16611476    -1.34481909    -0.42048968
O       1.20668284     5.39571260     5.50274866    -1.16611476     1.34481909     0.42048968
O       0.23893381     3.85154002     3.03536098    -0.15963754    -0.12489293     0.13186422
O       6.33689273     2.48055635     8.20151675     0.15963754     0.12489293    -0.13186422
O       3.52683651     2.48049741     2.58311361    -0.15957969     0.12498086    -0.13196989
O       3.04898996     3.85159895     8.65376399     0.15957969    -0.12498086     0.13196989
O       0.23891745     0.68549174     2.58307769    -0.15963754    -0.12489293    -0.13186422
O       6.33690903     5.64660463     8.65379985     0.15963754     0.12489293     0.13186422
O       3.04897367     0.68555067     8.20155261     0.15957969    -0.12498086    -0.13196989
O       3.52685287     5.64654563     3.03532513    -0.15957969     0.12498086     0.13196989
