# total energy = -19074.42512548 eV

CRYSTAL
PRIMVEC
        7.60600008     0.00000000     0.00000000
        0.00000000     7.60600008     0.00000000
       -1.89786986    -1.89786986     4.85670466
PRIMCOORD
22 1
Ti      3.73798998     6.64272000     1.37078101     1.52998924    -0.16646768    -1.59564084
Ti      3.75001998     2.82959098     1.33244302     2.18149211     0.04687946    -0.52162637
Ti      0.21648498     6.78697901     1.15297002    -2.19423399    -1.31234862    -0.99353814
Ti      0.24118899     2.84934099     0.97389501    -3.16402232     1.09333991    -0.12770443
Ti      5.80266620     2.92926522     3.40134684     1.05830116     0.25099735     0.64956477
Ti      5.91138122    -0.95563977     3.53030183     0.26640007     0.12545677    -1.46671411
Ti      1.88941922     2.72445521     3.75562582    -1.35959780     1.47298066     0.37758104
Ti      1.12888520    -0.91872479     4.05975880     1.20382771    -2.28267817    -2.06426827
O       3.70159402     4.71315798     0.93209498    -0.38957781    -0.99516693    -0.26715237
O       4.06585699     0.85244899     0.81886798    -1.26115408     0.42827190     1.46255072
O       0.23061000     4.85937198     0.50753401     0.35945527    -0.99700656     0.56525287
O      -0.11121300     0.99689501     0.71392202     0.48478939    -0.33887384    -0.39252044
O       5.94653023     4.84577223     3.86317781    -0.38449371    -0.84049676    -0.02673640
O       5.87369422     0.91572324     3.79308681    -0.22051589     1.13517666     0.56211844
O       1.78349323     4.64138720     4.24849183    -0.80404082     0.31208267    -0.21961009
O       1.59607124     0.78869323     4.09877382     0.22853362     2.68833001     0.76382592
O       3.68609023     2.91921524     3.27000679     1.13969486    -0.38295310    -0.59543480
O       0.01513225     2.89903121     3.02456882     1.00578328    -0.00166788     0.08335648
O       5.81409601     6.54543098     1.45281502    -0.06005019     0.25518620     2.05792048
O       5.79804802     2.93671498     1.32506603    -1.54781522     0.07521559     1.49232565
O       1.82598902    -0.79460901     2.16493298     0.49883379    -0.69953907    -0.21050246
O       1.89501199     2.47195601     1.57694000     1.42840132     0.13328141     0.46695185
