# total energy = -19517.41897044 eV

CRYSTAL
PRIMVEC
        5.17600016     0.00000000     0.00000000
        0.00000000     5.50899976     0.00000000
        0.00000000     0.00000000     9.26300011
PRIMCOORD
23 1
Ti      1.92276400     3.28017202     3.40575298    -1.23597731    -1.11103374     2.61145117
Ti      3.41801401     2.20561602     5.88225398    -0.94441822     0.68860313    -2.75779173
Ti      4.27794202     2.10467397     1.50898899     0.13746537     0.36769617    -0.32122166
Ti      0.82492399     3.33295099     7.84713002     0.50690989     0.77884709     0.80806743
Ti      1.88053502     0.24962598     1.30856702    -0.37199917     0.63448242    -1.22237849
Ti      3.36379499     5.14525798     7.93030102     0.01565468    -0.41420230     0.59633777
Ti      0.78104202     0.56259299     5.84087301    -0.13433762     0.21733517    -3.53063657
Ti      4.48821399     4.91910799     3.37720498     0.89333887    -0.45978361     2.85757731
O       1.59993799     1.99777398     4.80179802     0.66764786    -0.05600122     0.21250818
O       3.44562601     3.62503900     4.47439601     1.09920820    -0.47780139     0.80052535
O       4.87839098     3.05806500     0.07151000     0.35546286     0.22010477    -0.92033880
O       3.39388401     0.81034500     0.23968898     0.45948433    -0.11503583    -1.05247453
O       1.74914201     4.72213901     8.87015902    -0.03103914     0.40610641     2.25433046
O       4.29737002     0.73345602     4.78775202    -0.27089487     0.28922170    -0.25689418
O       1.09789600     4.76780299     4.38025701    -0.98117113     0.43120450     0.51994899
O       0.11395599     3.26580798     2.68497102     0.00838540     0.25388110    -0.82176087
O       5.06807700     2.10528200     6.76421100     0.19157580    -0.51610776     0.63305391
O       2.61407301     1.75755402     2.30443601    -0.65335124     1.22720548    -0.06755190
O       2.70813702     3.49147498     7.11694997    -0.36315586    -0.84661291     0.20006738
O       0.08428201     0.69708397     2.16857297     1.27506298    -0.76043670    -1.28676768
O       0.05966399     4.80141199     7.07355702    -1.59040119     0.14069133     0.38966446
O       2.51707900     0.70526299     6.71492798     0.01455219    -0.04843292     0.98432047
O       2.79218698     4.66228901     2.34507200     0.95199758    -0.84993092    -0.63003672
