# total energy = -19891.80951217 eV

CRYSTAL
PRIMVEC
        8.07417391     0.00000000     0.00000000
        0.00002510     2.86445423     0.00000000
        0.00000000     0.00000000    12.84532968
PRIMCOORD
24 1
Ti      2.92651438     1.69747283     4.76552580    -0.23764690     0.39575617     1.42277600
Ti      5.14768430     1.16698113     8.07980426     0.23764690    -0.39575617    -1.42277600
Ti      6.96346361     1.16698205     1.65708791    -0.23615257    -0.39582354    -1.42075022
Ti      1.11073512     1.69747202    11.18824227     0.23615257     0.39582354     1.42075022
Ti      2.92650216     0.26524577     1.65713942    -0.23679123     0.39627194    -1.42146396
Ti      5.14769657     2.59920830    11.18819075     0.23679123    -0.39627194     1.42146396
Ti      1.11072285     0.26524479     8.07975275     0.23686374     0.39581171    -1.42254331
Ti      6.96347589     2.59920928     4.76557732    -0.23686374    -0.39581171     1.42254331
O       2.55553573     1.00862294     6.55487356     4.62045047    -0.10310642     0.14563274
O       5.51866300     1.85583107     6.29045650    -4.62045047     0.10310642    -0.14563274
O       1.48161586     1.00863457     0.13224989    -4.61776058    -0.10335427     0.14396795
O       6.59258293     1.85581944    12.71307979     4.61776058     0.10335427    -0.14396795
O       5.51865073     0.42360390     0.13220818    -4.61692369     0.10333987     0.14370647
O       2.55554801     2.44085006    12.71312150     4.61692369    -0.10333987    -0.14370647
O       6.59257066     0.42359233     6.55491523     4.62193837     0.10367232     0.14544350
O       1.48162797     2.44086169     6.29041484    -4.62193837    -0.10367232    -0.14544350
O       0.29336848     1.74232344     3.46984407    -0.26149466     0.19892170     3.07745402
O       7.78083025     1.12213052     9.37548594     0.26149466    -0.19892170    -3.07745402
O       4.33046611     1.12210397     2.95286177    -0.25913001    -0.19876357    -3.07972584
O       3.74373262     1.74235005     9.89246807     0.25913001     0.19876357     3.07972584
O       0.29335621     0.31009632     2.95282077    -0.26107917     0.19928705    -3.07824566
O       7.78084253     2.55435769     9.89250908     0.26107917    -0.19928705     3.07824566
O       3.74372040     0.31012287     9.37552688     0.25912899     0.19910142    -3.07886864
O       4.33047834     2.55433109     3.46980307    -0.25912899    -0.19910142     3.07886864
