# total energy = -19514.82826785 eV

CRYSTAL
PRIMVEC
        5.17600016     0.00000000     0.00000000
        0.00000000     5.50899976     0.00000000
        0.00000000     0.00000000     9.26300011
PRIMCOORD
23 1
Ti      1.93245700     3.07773600     3.23774798     0.49819385    -1.03881091     3.85105528
Ti      3.30479702     2.28223898     5.93812600    -0.68615595     0.24072425    -2.81713358
Ti      4.56123098     1.86419900     1.62840900    -1.06101188     1.70917026    -4.13590353
Ti      0.91831600     3.51058299     7.71628401    -0.93954881    -1.86471023     3.17338860
Ti      2.03107399     0.11941398     1.35744501     1.51546970     0.50103543    -2.17638873
Ti      3.14978401     5.48223001     7.71102399     0.71725526    -0.14320896     2.85722584
Ti      0.72137501     0.63537900     6.02651701    -1.08382066     0.11776814    -3.61053800
Ti      4.38967002     4.75873400     3.39793698     1.36707791     1.14199549     3.45808336
O       1.59016801     1.93054503     4.72364003    -0.17038347    -0.31908122     1.16335828
O       3.61479101     3.24446399     4.40623898    -0.33982360     2.39950451    -1.31528251
O       0.18390899     2.64883001     0.07517503     0.51836724    -0.11506359     0.79500133
O       3.49038800     0.89116598     0.24512998     0.12880640    -0.04751992    -0.13365885
O       1.89471798     4.85471099     8.93884099    -1.20224597    -1.34142678    -0.46876910
O       4.13239102     0.68731002     5.05239399    -0.95300597    -0.19221060     0.38580677
O       0.85023999     4.92272799     4.51053500     0.56795073    -0.42754839     0.25925831
O       0.22290798     3.33218501     2.74288100    -0.40024378    -1.50424580    -1.92024325
O       4.94502397     2.36784800     6.68232701     0.92653491    -0.56402954     0.68177942
O       2.56335201     1.68880199     2.24743801     0.97884093     0.22060819     0.44537565
O       2.47301198     3.94591399     6.78337701     0.58695247     0.35472649    -0.97850206
O       0.25049298     0.30267600     1.85830101    -0.34587135    -0.46483197     1.25828935
O       4.91733001     4.83797099     7.43412998    -0.01692764     1.84659320    -0.87517916
O       2.16795299     1.50911498     7.30467301    -0.84790489    -0.60125758    -0.87845886
O       2.96901802     4.24441399     2.05521601     0.24149455     0.09181901     0.98143466
