# total energy = -19517.56495577 eV

CRYSTAL
PRIMVEC
        7.60600008     0.00000000     0.00000000
        0.00000000     7.60600008     0.00000000
       -1.89786986    -1.89786986     4.85670466
PRIMCOORD
23 1
Ti      3.75643202     6.73784898     1.25557399     1.58124394    -0.68209104    -0.69287322
Ti      3.76274500     2.96214401     1.21333099     1.28038080    -0.03246379    -0.37449520
Ti      0.04527302     6.48855998     1.22617301    -1.06500532     0.55774756     0.47865474
Ti      0.10833999     2.84506899     1.02058500    -0.64675661    -0.42006905     1.66714839
Ti      5.60254623     2.87006822     3.57140980     0.24837586     0.87633950    -0.00813883
Ti      5.55806322    -0.93041479     3.69188282     0.64349491    -1.34382947    -0.90377781
Ti      2.01536124     2.93630222     3.71869983    -0.02399149    -1.35886375    -0.02014871
Ti      1.83577520    -0.87396279     3.61726179    -0.38916000    -0.21117712     0.56053644
O       3.80091598     4.80182898     0.91188300    -0.14401037    -1.54875059    -0.41014021
O       4.06544301     0.91349800     0.59234202    -0.84255442     0.65803425     2.05444229
O       0.11791900     4.70799300     0.78340099     0.09965240     0.57853545    -0.59320000
O      -0.07863198     0.95003102     0.79355002     0.37152532     0.09671620     0.24102070
O       5.53289323     4.78772921     4.18472681     0.40621748    -1.21784794    -1.27610993
O       5.93070524     0.99750721     4.02911880     0.14371932    -0.69291179    -1.60820943
O       1.84157620     4.64767123     4.08312081    -0.19108112     1.55656777    -0.21561176
O       1.74720823     1.02137321     4.04299780    -0.61377500    -0.43645932     0.36190604
O       3.82482220     2.59994721     3.50974382     0.42054084     0.55613033    -1.94993899
O       3.68216623    -0.96203477     3.30567879     1.95659943     0.74888987    -0.95479263
O       0.08204523    -1.24232779     3.26608183    -1.67863042     0.93689774    -0.73267674
O       5.62610102     6.38134798     1.62992800     0.81121523     1.07795623     1.28679647
O       5.81942498     3.06243601     1.52692497    -0.09088776    -0.66896272     1.67987715
O       1.95595400     6.39951998     1.48909700    -1.31165442     1.48387803     0.91826058
O       1.95245000     2.93198000     1.64050599    -0.96545885    -0.51426607     0.49147092
