# total energy = -19960.76865325 eV

CRYSTAL
PRIMVEC
        7.60600008     0.00000000     0.00000000
        0.00000000     7.60600008     0.00000000
       -1.89786986    -1.89786986     4.85670466
PRIMCOORD
24 1
Ti      3.74222901     6.70111498     1.23974000     1.19354047     1.06859252     0.65231405
Ti      3.82492200     3.03831098     1.26028399    -0.25323062    -0.78706151    -0.47933917
Ti      0.06384301     6.63084997     1.16247002    -0.85721408     0.52984362     1.09111488
Ti     -0.01112500     2.85455698     1.25191701    -0.01020111    -0.87358559    -2.57490652
Ti      5.78848621     2.80367320     3.68398982    -2.00574660    -1.73482139    -0.33409827
Ti      5.77529620    -1.08997575     3.65396283    -0.80711946     1.93032198    -1.56961484
Ti      1.77561023     2.88146622     3.57930883     2.01545895    -0.05632338     0.65793372
Ti      1.87970120    -0.94555979     3.70809184     0.82536839     0.09774669     0.49835660
O       3.75744000     4.91623599     0.64648500     0.18807549    -2.16286909     1.24782445
O       3.60759002     0.98054798     0.79779302     0.64329488     0.25126835     0.16393103
O       0.13208301     4.75393701     0.75689497    -0.88015836    -0.64334064     0.06778665
O       0.02058198     0.93457401     0.67406302     0.12963713    -1.13828204     1.48118171
O       5.89303422     4.65512824     3.99954182    -0.15284417     0.24005242    -0.00725797
O       5.69991522     0.80717221     4.03782382    -0.19922072     2.12929510     0.19371804
O       1.78305221     4.80779022     4.09185980    -0.04295261    -0.31823944    -1.07508919
O       1.82461025     1.02691920     4.21225382     0.44551706    -0.16737785    -1.36428878
O       3.70375523     2.80548124     3.16155181     0.40569735     0.37508218     0.23369614
O       3.82690621    -1.08079876     3.28701481    -0.38715017     0.20322418    -0.47172356
O      -0.05804180     2.61042322     3.24678279     0.88964959     0.31751182    -0.66899178
O       0.09648420    -0.89903378     3.15636079    -1.31253425    -0.09886615    -0.30894953
O       5.69302999     6.64611298     1.58013602     0.87063473    -0.13503542     0.22357679
O       5.73803101     2.88509098     1.61123201    -1.21996731     0.37788031     0.32921574
O       1.91574399     6.54870002     1.59845000    -0.41149082     0.45670060     0.42657240
O       1.80134402     2.93114401     1.47250899     0.93295598     0.13828246     1.58703741
