# total energy = -39032.70063552 eV

CRYSTAL
PRIMVEC
        5.93200024     0.00000000     0.00000000
        0.00000000     9.29399984     0.00000000
        0.00000000     0.00000000     9.29399984
PRIMCOORD
46 1
Ti      4.47145399     7.09174002     6.89070903    -1.09581820     0.16711688     0.76939134
Ti      4.46508201     6.76107700     2.30963099     0.31881537     0.53461482     0.20129200
Ti      4.43667001     2.25253298     6.94426399     1.09971445    -0.08576123     0.59986970
Ti      4.29065598     2.68297999     2.08326500     0.94189520    -0.81183435     1.57184887
Ti      1.43588701     6.89600799     7.02585502    -0.63666040     0.50254004    -0.10853787
Ti      1.53030398     7.00084700     2.12133999    -0.54563303     0.38180073     1.04475890
Ti      1.49924398     2.39404498     6.91778999    -0.85395881    -1.07439139    -0.10719087
Ti      1.35122701     1.90032302     2.80280598    -0.65667208     1.91331824    -1.33899528
Ti      3.01093198     4.72685001     4.90594900     0.23762941     0.62420212    -1.74006619
Ti      2.95194999     4.88655603     8.92257001     1.42868234     0.19722245     0.91414116
Ti      2.96039899     9.28174002     4.64457301    -0.92467188    -1.56616930     0.67428568
Ti      2.92241899     0.02908602     9.28836500     0.99086882    -1.12081165    -0.13659402
Ti      0.04576103     4.62589501     4.64141398     0.00994477     0.29487170    -1.12977272
Ti      0.05229001     4.68214798     0.03175402    -0.97731781     0.66053670    -0.36764552
Ti      5.84104700     9.03039601     4.83683898     1.26425612     0.26532740    -1.67347896
Ti      5.93043499     0.11272200     0.00679802    -1.65414323    -1.63674045     0.08975287
O       4.59972301     5.73472201     5.55998599    -0.65302805    -1.30020401    -0.99750664
O       4.44882801     5.90580099     0.60798100    -0.25255750    -2.09574450     0.55293162
O       4.49359900     0.81925100     5.61910303    -0.22059122     0.94227701    -0.18886739
O       4.38332100     0.81981801     0.94753198     0.37677628     1.68232279    -0.24936727
O       1.47780298     5.58250200     5.54598502    -0.18893399     0.35705180    -0.31263289
O       1.49152402     5.75898701     0.66177901     0.61439695    -0.74542376     0.28825394
O       1.48754403     0.76774099     5.74840802     0.21864824     1.39864696    -1.28793187
O       1.40434302     0.65666499     1.10228500     0.86401877     1.52067336     0.20304961
O       4.48644998     8.45688599     8.25883198    -0.21638104     0.46401179     1.16179222
O       4.44947297     8.10184499     3.96490002     0.06353944     1.48925061    -0.70117814
O       4.47892799     3.93806899     8.34145698    -0.12897352    -1.83196927     0.33436438
O       4.39900402     3.95284902     3.76582100    -0.33295773    -1.65075940    -0.91662484
O       1.54263900     8.21901197     8.24842502     0.05251917     2.49834290     2.50287832
O       1.45062000     8.23088301     3.91126701     0.44721836     1.18754465    -1.12764153
O       1.54649898     3.79532898     8.37608501    -0.45442465    -0.42715758     0.23318603
O       1.57989699     3.77677301     3.93461097     0.13681282    -1.84689659    -0.74479307
O       2.95707100     6.01637501     7.47629900     1.33713046    -1.80449317     2.03563569
O       2.93764500     5.93788602     3.07206301    -0.16494147     0.62869923     0.06992683
O       2.96683500     1.46188200     7.87349902     0.01801521    -0.10599531     0.72463073
O       3.10420402     1.51011301     3.12657499     0.05078393    -0.51235472     0.98570861
O       5.89612202     5.98312702     7.85017802     0.57694111     0.26337928    -0.28370617
O       0.04704597     5.90014102     3.05964401     0.04123100     0.47993875    -0.26473605
O       0.10693201     1.53555702     7.98809802    -0.54646247     0.10959846    -0.13925563
O       2.99298398     7.95238999     6.09784900    -0.10868160     0.13866582    -0.55379320
O       3.02297298     7.86590702     1.37276400    -0.53559158     0.51309031     0.18237510
O       3.06163002     3.24457501     6.13606999    -0.23495495     0.40872559    -0.45593106
O       0.06146097     7.83834001     6.17137198     0.10014502     0.52947518    -0.56594758
O       5.87249098     7.91533202     1.40545800     0.64687385    -0.27653048     0.42979271
O       5.89443501     3.23612701     5.97799702     0.18296054    -0.89820622     1.03979050
O       0.14293400     3.15168498     1.80747401    -0.63646371    -0.36180217    -1.21746125
