# total energy = -19960.39838697 eV

CRYSTAL
PRIMVEC
        7.60600008     0.00000000     0.00000000
        0.00000000     7.60600008     0.00000000
       -1.89786986    -1.89786986     4.85670466
PRIMCOORD
24 1
Ti      3.73143400     6.56470102     1.34445799    -0.28237125     0.95614426    -1.40747124
Ti      3.77333802     2.93847401     1.24280002     0.28498118    -1.73414082    -0.21445245
Ti     -0.04895900     6.60362301     1.15738198     0.48729416     0.22656184     0.76102394
Ti      0.05058802     2.89250402     1.15436498    -0.15900865    -0.02186030    -0.72708433
Ti      5.79338025     2.88866124     3.54907884    -0.71396219     0.46176027     0.86378891
Ti      5.72985824    -0.99002877     3.66415981     1.71863501    -0.11272080    -0.16662940
Ti      1.83874822     2.90138022     3.61068279     0.53609526     0.28224270     0.29764412
Ti      1.89049922    -0.95329678     3.64041679    -1.49573416    -0.19610017     1.49985487
O       3.65480999     4.75488403     0.83811998     0.34514219     0.55966535    -0.78601661
O       3.56210998     1.02714701     0.82780901     1.01608055    -0.74626425     0.74267242
O       0.07754802     4.76802302     0.77393898    -0.30103027    -0.72228434    -0.74090119
O       0.22228900     0.91959200     0.68581298    -1.12855633     0.55682813     1.03693426
O      -1.50480679     4.75921920     4.08297979    -1.29945916    -1.08982367    -0.46833716
O       5.93900120     0.95881922     4.06913879    -1.18316066     0.12467490    -0.58230057
O       1.58615425     4.78501522     4.13444180     0.97432787    -1.34901333     0.67299499
O       1.79985624     0.93134323     3.99333780     0.80061225     1.12702626     0.45548601
O       3.83552724     3.07012220     3.30341380    -0.40661857    -0.65681066    -0.83055430
O       3.79803022    -1.24521276     3.34389480     0.28909495     0.83345399    -0.81620883
O       0.00623122     2.76050223     3.19849081     0.50427733    -0.01704051    -0.73270554
O      -0.02978977    -1.06806480     3.14551684    -0.78207896     1.06636029     0.13461607
O       5.72743498     6.52158101     1.54355802    -1.95192491     0.69497741     0.21143269
O       5.73665599     3.08742201     1.53622399    -0.32214340    -0.98174371     0.63825757
O       1.77279602     6.45312998     1.79213200     2.78240002     0.61187547    -1.12376790
O       1.88528899     2.93092800     1.58977202     0.28710800     0.12623144     1.28172420
