# total energy = -19920.88778066 eV

CRYSTAL
PRIMVEC
        7.42202922     0.00000000     0.00000000
        0.00002921     5.26618894     0.00000000
        0.00000000     0.00000000    11.53107668
PRIMCOORD
24 1
Ti      2.69014604     3.12073867     4.27794720     0.57018373    -0.50996153     1.38865282
Ti      4.73191251     2.14545027     7.25312961    -0.57018373     0.50996153    -1.38865282
Ti      6.40103270     2.14545211     1.48754510     0.56925196     0.50994945    -1.38936681
Ti      1.02102585     3.12073709    10.04353177    -0.56925196    -0.50994945     1.38936681
Ti      2.69013144     0.48764433     1.48759133     0.57074835    -0.54048722    -1.38950925
Ti      4.73192712     4.77854480    10.04348555    -0.57074835     0.54048722     1.38950925
Ti      1.02101125     0.48764236     7.25308332    -0.56999938    -0.54015452    -1.38961698
Ti      6.40104731     4.77854676     4.27799343     0.56999938     0.54015452     1.38961698
O       2.34912945     1.85431467     5.88422019     0.80388630     1.35153379    -1.42261222
O       5.07292910     3.41187433     5.64685662    -0.80388630    -1.35153379     1.42261222
O       1.36194927     1.85433590     0.11871890    -0.80341836     1.35186803    -1.42335141
O       6.06010941     3.41185311    11.41235753     0.80341836    -1.35186803     1.42335141
O       5.07291456     0.77877980     0.11868147    -0.80361170    -1.35247533    -1.42277471
O       2.34914400     4.48740914    11.41239497     0.80361170     1.35247533     1.42277471
O       6.06009480     0.77875864     5.88425756     0.80282855    -1.35191611    -1.42259216
O       1.36196369     4.48743043     5.64681919    -0.80282855     1.35191611     1.42259216
O       0.26967740     3.20319464     3.11483151    -1.84580567     0.52994544     0.25301130
O       7.15238115     2.06299437     8.41624530     1.84580567    -0.52994544    -0.25301130
O       3.98070031     2.06294526     2.65074357    -1.84639291    -0.52952609    -0.25376643
O       3.44135824     3.20324374     8.88033305     1.84639291     0.52952609     0.25376643
O       0.26966280     0.57010010     2.65070671    -1.84662328     0.52961762    -0.25406160
O       7.15239576     4.69608884     8.88036985     1.84662328    -0.52961762     0.25406160
O       3.44134370     0.57014921     8.41628204     1.84685520     0.52938031    -0.25348695
O       3.98071485     4.69603979     3.11479470    -1.84685520    -0.52938031     0.25348695
