# total energy = -4983.62229122 eV

CRYSTAL
PRIMVEC
        4.15353764     0.00000000     0.00000000
        0.00000000     2.78913030     0.00000000
        0.00000000    -0.00008939     5.53398910
PRIMCOORD
6 1
Ti      2.07676882     1.39452040     2.76699444     0.00000000     0.00000000     0.00000000
Ti      0.00000000     0.00000000     0.00000000     0.00000000     0.00000000     0.00000000
O       2.07676882     0.54354299     1.07849295     0.00000000    -0.75235906     1.31521694
O       2.07676882     2.24549787     4.45549594     0.00000000     0.75235906    -1.31521694
O       0.00000000     0.85094197     3.84548845     0.00000000     0.75246422     1.31522440
O       0.00000000     1.93809884     1.68850038     0.00000000    -0.75246422    -1.31522440
