# total energy = -19519.16210962 eV

CRYSTAL
PRIMVEC
        7.60600008     0.00000000     0.00000000
        0.00000000     7.60600008     0.00000000
       -1.89786986    -1.89786986     4.85670466
PRIMCOORD
23 1
Ti      3.88251601     6.64052302     1.21218098    -0.24661131     0.05200187     0.34475961
Ti      3.71823500     2.81892298     1.08838801     0.21816898     0.25530498     1.64047961
Ti      0.06137398     6.64642001     1.17281199    -0.22619623    -0.09450607     0.27375240
Ti     -0.03310702     2.79373599     1.16499202    -0.02239869     0.16559839     0.11259019
Ti      5.52960021     2.89239125     3.69387480    -0.30241558    -0.19777524    -0.50415187
Ti      5.75529621    -0.94185978     3.58344482    -0.56875651    -0.40746498     0.24154623
Ti      1.87173121     2.90066425     3.72238481     1.15445480     0.11948255    -1.09603829
Ti      1.92496120    -0.95515779     3.63818683     0.32326441    -0.04779734    -0.55298022
O       3.96892500     4.69375702     0.74036300    -0.83039181     0.66928283     0.75617663
O       4.04037700     0.96411301     0.85560098    -0.65348545     0.22427356    -0.57769316
O       0.04498398     4.79292901     0.76029102     0.20002007    -0.73926211     0.35083050
O      -0.15221598     0.92065898     0.87835100     0.63681390    -0.10289379    -0.34066615
O       5.69669020     4.74749523     4.01648581     0.56353151     0.29103433     0.66744577
O       5.66345221     0.87229324     4.08660481     0.31340911     1.16156570    -0.42067686
O       1.88023625     4.80923820     4.04974582    -0.56447434    -0.61847807     0.37008575
O       1.76519322     0.98514420     3.98917381    -0.19629351    -0.67138316     0.48394427
O       3.74825322     2.93788223     3.32692382    -0.07672175    -0.45512734    -0.84876132
O       3.85173224    -1.01361278     3.21848980    -0.82098183     0.34094023    -0.19827326
O       0.00070423    -0.97768577     3.29206279     0.53215787     0.07727891    -0.65297148
O       5.68499898     6.52535198     1.59150598     1.36726560     0.26699759     0.48700569
O       5.79333199     2.94043202     1.76710202     0.02596969    -0.20207233    -0.01037389
O       1.95207698     6.61409098     1.64177199    -0.49736132     0.26494302     0.01743671
O       1.88425202     2.90438801     1.69027501    -0.32896763    -0.35194302    -0.54346662
