# total energy = -19961.08648141 eV

CRYSTAL
PRIMVEC
        5.93400000     0.00000000     0.00000000
        0.00000000     9.29699974     0.00000000
        0.00000000     0.00000000     4.64899994
PRIMCOORD
24 1
Ti      4.45748202     6.88977900     2.30425900    -0.60604883     0.90119873     0.33452019
Ti      4.43852901     2.32093199     2.33584400     0.15059342    -0.20009695     0.76213722
Ti      1.48133201     7.00299800     2.34851398     0.83844656     0.48633514    -0.03142558
Ti      1.45690302     2.38902700     2.31725998    -0.13674546    -0.98445802     0.21892283
Ti      2.96092198     4.66639802     0.02851900     0.06990395    -0.32989940    -0.20279661
Ti      3.00248202     0.00184101     4.62506499    -0.18581858    -0.50180650    -0.31050145
Ti      0.01811898     4.65520301     0.01015798    -0.24352058    -0.18117234    -0.15754543
Ti      5.92810200     9.25780300     0.07455901     0.22232826     0.09551266    -0.76871488
O       4.36836899     5.58540698     0.83736802     0.75370040    -0.35325222     0.23320351
O       4.42285398     0.89575299     0.78984001     0.42089849     0.48032390     0.79525947
O       1.51223099     5.59093201     0.91320398    -0.30776630    -0.10085182    -0.17035133
O       1.46456599     0.92248798     0.96311302     0.08885942    -0.41097325    -0.80812013
O       4.47160899     8.36387398     3.62755201    -0.09347403     0.58692445     1.09734184
O       4.47869801     3.69754798     3.67092100    -0.28131659     0.58497324     0.88346763
O       1.45324202     8.36293099     3.73180401    -0.11738170     0.01963552    -0.15637018
O       1.43984701     3.72104202     3.83971002     0.43650406    -0.15312493    -0.73048693
O       2.98050000     6.16843299     3.24683602    -0.88611484    -0.97731087     0.04094818
O       3.00529598     1.40362101     3.25282599    -0.20333011     0.54857335    -0.72373521
O       5.86385502     5.94551702     3.23089302     0.88747315     0.97999999    -0.70031528
O       5.92001898     1.40206999     3.15358398     0.38602943     0.20443234     0.12446715
O       3.01484001     7.86297999     1.36236101    -0.98690314    -0.05550371     0.25191910
O       3.03376502     3.26565399     1.37536898    -0.53563169    -0.22997909     0.31290466
O       5.85630800     7.88183198     1.39582602     0.92443534    -0.33019739     0.11180472
O       0.08336097     3.32005600     1.48360002    -0.59511984    -0.07928282    -0.40653398
