# total energy = -4979.71489964 eV

CRYSTAL
PRIMVEC
        3.64917959     0.00000000     0.00000000
        0.00000000     5.71771733     0.00000000
        0.00000000    -0.00007420     5.71771733
PRIMCOORD
6 1
Ti      1.82458973     2.85882150     2.85885860     0.00000000     0.00000000     0.00000000
Ti      0.00000000     0.00000000     0.00000000     0.00000000     0.00000000     0.00000000
O       1.82458973     1.11428442     1.11429888     0.00000000    -0.96389228    -0.96389228
O       1.82458973     4.60335858     4.60341832     0.00000000     0.96389228     0.96389228
O       0.00000000     1.74450700     3.97315864     0.00000000     0.96274556    -0.96274556
O       0.00000000     3.97313600     1.74455856     0.00000000    -0.96274556     0.96274556
