# total energy = -4988.39007436 eV

CRYSTAL
PRIMVEC
        3.20515884     0.00000000     0.00000000
        0.25094361     5.01572977     0.00000000
       -0.00000139    -0.00006518     5.02357461
PRIMCOORD
6 1
Ti      1.72805041     2.50783213     2.51178719     0.00000000     0.00000000     0.00000000
Ti      0.00000000     0.00000000     0.00000000     0.00000000     0.00000000     0.00000000
O       1.65148427     0.97747903     0.97902063     0.14079572    -0.60595113    -0.61731130
O       1.80461649     4.03818523     4.04455369    -0.14079572     0.60595113     0.61731130
O       0.07656545     1.53032668     3.49080884    -0.14176554     0.61005873    -0.62141967
O       0.17437665     3.48533780     1.53276548     0.14176554    -0.61005873     0.62141967
